<?xml version="1.0" encoding="UTF-8"?>

<!-- generated on 12/16/20 10:32:52 by Eclipse SUMO duarouter Version 1.8.0
<configuration xmlns:xsi="http://www.w3.org/2001/XMLSchema-instance" xsi:noNamespaceSchemaLocation="http://sumo.dlr.de/xsd/duarouterConfiguration.xsd">

    <input>
        <net-file value="C:\Users\Matt\OneDrive%20-%20Clemson%20University\Clemson%20University\Research\SUMO\Tests\ClemsonArea/worlds/perimeter_net/sumo.net.xml"/>
        <route-files value="C:\Users\Matt\OneDrive%20-%20Clemson%20University\Clemson%20University\Research\SUMO\Tests\ClemsonArea/worlds/perimeter_net/sumo.trip.xml"/>
    </input>

    <output>
        <output-file value="C:\Users\Matt\OneDrive%20-%20Clemson%20University\Clemson%20University\Research\SUMO\Tests\ClemsonArea/worlds/perimeter_net/sumo.rou.xml"/>
        <alternatives-output value="C:\Users\Matt\OneDrive%20-%20Clemson%20University\Clemson%20University\Research\SUMO\Tests\ClemsonArea/worlds/perimeter_net/sumo.rou.alt.xml"/>
    </output>

    <report>
        <ignore-errors value="true"/>
    </report>

</configuration>
-->

<routes xmlns:xsi="http://www.w3.org/2001/XMLSchema-instance" xsi:noNamespaceSchemaLocation="http://sumo.dlr.de/xsd/routes_file.xsd">
    <vehicle id="1" depart="1.00">
        <route edges="370814340_2 -370814340_2 -370814340_5 -370814340_1 -724068308_3 -724068308_2 12508929 724068299_1 27160092"/>
    </vehicle>
    <vehicle id="2" depart="2.00">
        <route edges="724068308_2 -724068308_2"/>
    </vehicle>
    <vehicle id="3" depart="3.00">
        <route edges="26963020_1 26962987_6 26962987_7 26962987_8 26962987_9 26962987_10 26962987_11 26962987_12 724068310_2 724068299_1 724068299_2 724068299_3 724068282_2 12998914_1 12998914_2 26962789_1 26962789_2 26962789_5 26962789_4"/>
    </vehicle>
    <vehicle id="5" depart="5.00">
        <route edges="12504771_2 370814340_1 -370814340_1"/>
    </vehicle>
    <vehicle id="6" depart="6.00">
        <route edges="27272299_1 27272313"/>
    </vehicle>
    <vehicle id="7" depart="7.00">
        <route edges="370814340_1 -370814340_1 -724068308_3 -724068308_2 12508929 724068298_1 724068298_2 724068298_3"/>
    </vehicle>
    <vehicle id="8" depart="8.00">
        <route edges="-370814340_4 370814340_4 370814340_3 724068296 473901225_1"/>
    </vehicle>
    <vehicle id="9" depart="9.00">
        <route edges="26962987_8 26962987_9 26962987_10 26962987_11 26962987_12 724068310_2 724068298_1 724068298_2 724068298_3 724068298_4 370814340_7 370814340_4 12517214_1 12517214_2"/>
    </vehicle>
    <vehicle id="10" depart="10.00">
        <route edges="724068296 -724068296 -370814340_3 -370814340_4 -370814340_7 370814340_7"/>
    </vehicle>
    <vehicle id="11" depart="11.00">
        <route edges="370814340_1 -370814340_1 -724068308_3 12515718_1 12515718_2 12515718_3 724068298_4 370814340_7 370814340_4 370814340_3 724068296 473901225_1"/>
    </vehicle>
    <vehicle id="12" depart="12.00">
        <route edges="-724068308_4 26962987_1 26962987_2 26962987_3 26962987_4 26962987_5 26962987_6 26962987_7 26962987_8 26962987_9 26962987_10 26962987_11 26962987_12 724068310_2 724068298_1 724068298_2 724068298_3 724068298_4 370814340_7 370814340_4 370814340_3 724068296 12511444_1 12511444_2 691852299"/>
    </vehicle>
    <vehicle id="13" depart="13.00">
        <route edges="26963041_1 26962987_8 26962987_9 26962987_10 26962987_11 26962987_12 724068310_2 724068298_1 724068298_2 724068298_3 724068298_4 370814340_7 370814340_4 370814340_3 724068296 473901225_1 778744824 778744823_2"/>
    </vehicle>
    <vehicle id="19" depart="19.00">
        <route edges="12508929 724068298_1 724068298_2 724068298_3 724068298_4 370814340_7 370814340_4 370814340_3 724068296 12511444_1 12511444_2 691852300_1"/>
    </vehicle>
    <vehicle id="20" depart="20.00">
        <route edges="724068308_2 12525193_1 27270882_1 27270882_2 27270882_3 27270885_1"/>
    </vehicle>
    <vehicle id="21" depart="21.00">
        <route edges="-724068308_4 -724068308_1"/>
    </vehicle>
    <vehicle id="28" depart="28.00">
        <route edges="724068299_2 724068299_3 724068282_2 724068294 -370814340_3 -370814340_4 -370814340_7 370814340_7"/>
    </vehicle>
    <vehicle id="35" depart="35.00">
        <route edges="26962987_5 26962987_6 26962987_7 26962987_8 26962987_9 26962987_10 26962987_11 26962987_12 724068310_2 724068298_1 724068298_2 724068298_3 724068298_4 370814340_7 -370814340_7"/>
    </vehicle>
    <vehicle id="45" depart="45.00">
        <route edges="-370814340_5 -370814340_1 -724068308_3 12515718_1 12515718_2 12515718_3 724068298_4 370814340_7 370814340_4 370814340_3 724068296 473901225_1 -473901225_1"/>
    </vehicle>
    <vehicle id="47" depart="47.00">
        <route edges="370814340_1 -370814340_1 -724068308_3 -724068308_2 -724068308_4 26962987_1 26962987_2 26962987_3 26962987_4 26962987_5 26962987_6 26962987_7 26962987_8 26962987_9 26963061_2"/>
    </vehicle>
    <vehicle id="50" depart="50.00">
        <route edges="-724068308_2 12508929 724068298_1 724068298_2 724068298_3 724068298_4 370814340_7 370814340_4 370814340_3 724068296 12511444_1 12511444_2 691852299"/>
    </vehicle>
    <vehicle id="51" depart="51.00">
        <route edges="724068308_2 12525193_1 27270882_1 27270882_2 27270882_3 27270885_1 27270885_2"/>
    </vehicle>
    <vehicle id="52" depart="52.00">
        <route edges="26963052_1 26962987_9 26962987_10 26962987_11 26962987_12 724068310_2 724068298_1 724068298_2 724068298_3 724068298_4 370814340_7 370814340_4 370814340_3 -370814340_3"/>
    </vehicle>
    <vehicle id="53" depart="53.00">
        <route edges="26962987_10 26962987_11 26962987_12 724068310_2"/>
    </vehicle>
    <vehicle id="57" depart="57.00">
        <route edges="26962987_2 26962987_3 26962987_4 26962987_5 26962987_6 26962987_7 26962987_8 26962987_9 26962987_10 26962987_11 26962987_12 724068310_2 724068298_1 724068298_2 724068298_3 724068298_4 370814340_7 370814340_4 370814340_3 724068296 12511444_1 749768787 749768790 749768789_1 749768788 691852298_2"/>
    </vehicle>
    <vehicle id="62" depart="62.00">
        <route edges="370814340_5 -370814340_5 -370814340_1 -724068308_3 -724068308_2 -724068308_4 26962987_1 26962987_2 26962987_3"/>
    </vehicle>
    <vehicle id="63" depart="63.00">
        <route edges="26962987_9 26962987_10 26962987_11 26962987_12 724068310_2 724068299_1 724068299_2 724068299_3"/>
    </vehicle>
    <vehicle id="69" depart="69.00">
        <route edges="370814340_1 -370814340_1 -724068308_3 -724068308_2 12508929 724068299_1 724068299_2 724068299_3 724068282_2 12998914_1 12998914_2"/>
    </vehicle>
    <vehicle id="73" depart="73.00">
        <route edges="12504771_1 12504771_2 370814340_1 370814340_5 12509470"/>
    </vehicle>
    <vehicle id="76" depart="76.00">
        <route edges="724068308_3 370814340_1 -370814340_1"/>
    </vehicle>
    <vehicle id="77" depart="77.00">
        <route edges="724068308_3 -724068308_3 12525193_1 27270882_1 27270882_2 27270882_3 27270885_1"/>
    </vehicle>
    <vehicle id="88" depart="88.00">
        <route edges="-724068308_4 26962987_1 26962987_2 26962987_3 26962987_4 26962987_5 26962987_6 26962987_7"/>
    </vehicle>
    <vehicle id="90" depart="90.00">
        <route edges="724068308_3 -724068308_3 12525193_1 27270882_1 27270882_2 27270882_3 27270885_1 27270919"/>
    </vehicle>
    <vehicle id="91" depart="91.00">
        <route edges="724068308_2 12515718_1 12515718_2 12515718_3 724068298_4 370814340_7 370814340_4 370814340_3 724068296 12511444_1 12511444_2"/>
    </vehicle>
    <vehicle id="92" depart="92.00">
        <route edges="724068308_3 -724068308_3 -724068308_2 -724068308_4 26962987_1 26962987_2 26962987_3 26962987_4 26962987_5 26962987_6 26962987_7 26962987_8 26962987_9 26962987_10 26962987_11"/>
    </vehicle>
    <vehicle id="95" depart="95.00">
        <route edges="-370814340_1 -724068308_3 12515718_1 12515718_2 12515718_3 724068298_4 370814340_7 370814340_4"/>
    </vehicle>
    <vehicle id="99" depart="99.00">
        <route edges="-724068308_4 724068308_4 12508929 724068299_1 724068299_2 724068299_3"/>
    </vehicle>
    <vehicle id="104" depart="104.00">
        <route edges="724068308_2 -724068308_2 12508929 724068299_1 724068299_2 724068299_3 724068282_2 12998914_1 12998914_2 26962789_1"/>
    </vehicle>
    <vehicle id="106" depart="106.00">
        <route edges="749768787 749768790 749768789_1 749768788 691852298_2 691852300_1 691852300_2 12517214_2"/>
    </vehicle>
    <vehicle id="111" depart="111.00">
        <route edges="26962987_2 26962987_3 26962987_4 26962987_5 26962987_6 26962987_7 26962987_8 26962987_9 26962987_10 26962987_11 26962987_12 724068310_2 724068298_1 724068298_2 724068298_3 724068298_4 370814340_7 370814340_4 370814340_3 724068296 12511444_1 12511444_2 691852300_1 691852300_2"/>
    </vehicle>
    <vehicle id="113" depart="113.00">
        <route edges="724068284 724068285 724068283 724068282_1"/>
    </vehicle>
    <vehicle id="115" depart="115.00">
        <route edges="370814340_7 370814340_4 370814340_3 724068296 12511444_1 749768787 749768790 749768789_1 749768788"/>
    </vehicle>
    <vehicle id="116" depart="116.00">
        <route edges="370814340_5 -370814340_5 -370814340_1 -724068308_3 12515718_1 12515718_2 12515718_3 724068298_4 370814340_7 370814340_4"/>
    </vehicle>
    <vehicle id="117" depart="117.00">
        <route edges="27160030 12515718_3 724068298_4 370814340_7 370814340_4"/>
    </vehicle>
    <vehicle id="123" depart="123.00">
        <route edges="-473901225_1 12511444_1 12511444_2 691852300_1 12518691"/>
    </vehicle>
    <vehicle id="125" depart="125.00">
        <route edges="351695510_1"/>
    </vehicle>
    <vehicle id="126" depart="126.00">
        <route edges="724068285 724068283 724068282_1 724068282_2 724068294 724068296 473901225_1 778744824 778744823_2"/>
    </vehicle>
    <vehicle id="130" depart="130.00">
        <route edges="26963017_1 26962987_5 26962987_6 26962987_7 26962987_8 26962987_9 26962987_10 26962987_11 26962987_12 724068310_2 724068298_1 724068298_2 724068298_3 724068298_4 370814340_7 370814340_4 370814340_3 724068296 12511444_1 749768787"/>
    </vehicle>
    <vehicle id="131" depart="131.00">
        <route edges="27160030 12515718_3 724068298_4 370814340_7 370814340_4 370814340_3 724068296 473901225_1 -473901225_1"/>
    </vehicle>
    <vehicle id="141" depart="141.00">
        <route edges="26963040_1 26962987_7 26962987_8 26962987_9 26962987_10 26962987_11 26962987_12 724068310_2 724068299_1 724068299_2 724068299_3 724068282_2 12998914_1 12998914_2 26962789_1 26962789_2 26962789_5"/>
    </vehicle>
    <vehicle id="142" depart="142.00">
        <route edges="370814340_5 -370814340_5 -370814340_1 -724068308_3 -724068308_2 -724068308_4 26962987_1 26962987_2 26962987_3 26962987_4 26962987_5"/>
    </vehicle>
    <vehicle id="151" depart="151.00">
        <route edges="-370814340_4 -370814340_7 370814340_7"/>
    </vehicle>
    <vehicle id="153" depart="153.00">
        <route edges="370814340_2 -370814340_2 -370814340_5 -370814340_1 -724068308_3 -724068308_2 -724068308_4 -724068308_1"/>
    </vehicle>
    <vehicle id="154" depart="154.00">
        <route edges="724068293 724068282_1 724068282_2 724068294 724068296 473901225_1 473901225_2"/>
    </vehicle>
    <vehicle id="156" depart="156.00">
        <route edges="724068299_1 724068299_2 724068299_3 724068282_2 724068294 -370814340_3 12517214_1"/>
    </vehicle>
    <vehicle id="159" depart="159.00">
        <route edges="-724068308_4 724068308_4 12508929 724068299_1"/>
    </vehicle>
    <vehicle id="161" depart="161.00">
        <route edges="26962987_11 26962987_12 724068310_2 724068299_1 724068299_2 724068299_3 724068282_2 12998914_1 12998914_2 12998914_3"/>
    </vehicle>
    <vehicle id="176" depart="176.00">
        <route edges="26962987_3 26962987_4 26962987_5 26962987_6 26962987_7 26962987_8 26962987_9 26962987_10 26962987_11 26962987_12 724068310_2 724068298_1 724068298_2 724068298_3 724068298_4 370814340_7 370814340_4 12517214_1"/>
    </vehicle>
    <vehicle id="184" depart="184.00">
        <route edges="370814340_2 -370814340_2 -370814340_5 -370814340_1 -724068308_3 12515718_1 12515718_2 12515718_3 724068298_4 370814340_7 370814340_4 -370814340_4"/>
    </vehicle>
    <vehicle id="190" depart="190.00">
        <route edges="26962987_10"/>
    </vehicle>
    <vehicle id="192" depart="192.00">
        <route edges="26962987_5 26962987_6 26962987_7 26962987_8 26962987_9 26962987_10 26962987_11 26962987_12 724068310_2 724068298_1 724068298_2 724068298_3 724068298_4 370814340_7 370814340_4 370814340_3 724068296 473901225_1"/>
    </vehicle>
    <vehicle id="203" depart="203.00">
        <route edges="724068293 724068282_1 724068282_2 724068294 724068296 12511444_1 749768787 749768790 749768789_1 749768789_2"/>
    </vehicle>
    <vehicle id="210" depart="210.00">
        <route edges="724068308_1 26962987_1 26962997_2"/>
    </vehicle>
    <vehicle id="211" depart="211.00">
        <route edges="26963041_1 26962987_8 26962987_9 26962987_10 26962987_11 26962987_12 724068310_2 724068298_1 724068298_2 724068298_3 724068298_4 370814340_7 370814340_4 370814340_3 724068296 12511444_1 749768787"/>
    </vehicle>
    <vehicle id="213" depart="213.00">
        <route edges="724068286 724068284 724068285 724068283 724068282_1 724068282_2 724068294 -370814340_3 12517214_1 12517214_2"/>
    </vehicle>
    <vehicle id="216" depart="216.00">
        <route edges="-724068308_2 12508929 724068299_1 724068299_2 724068299_3 724068282_2 12998914_1 12998914_2 26962789_1 26962799"/>
    </vehicle>
    <vehicle id="219" depart="219.00">
        <route edges="370814340_5 -370814340_5 -370814340_1 -724068308_3 12515718_1 12515718_2 12515718_3 724068298_4 370814340_7 370814340_4 370814340_3 -370814340_3"/>
    </vehicle>
    <vehicle id="222" depart="222.00">
        <route edges="724068285 724068283 724068282_1 724068282_2 12998914_1"/>
    </vehicle>
    <vehicle id="225" depart="225.00">
        <route edges="26963067_1 26962987_12 724068310_2 724068299_1 724068299_2 724068299_3 724068282_2 12998914_1 12998914_2 26962789_1 26962799 26962789_3"/>
    </vehicle>
    <vehicle id="226" depart="226.00">
        <route edges="12508929 724068298_1 724068298_2 724068298_3 724068298_4 370814340_7 370814340_4 370814340_3 724068296 12511444_1 749768787 749768790 749768789_1 749768788 691852298_2"/>
    </vehicle>
    <vehicle id="228" depart="228.00">
        <route edges="370814340_7 370814340_4 370814340_3 724068296 12511444_1 12511444_2 691852300_1"/>
    </vehicle>
    <vehicle id="233" depart="233.00">
        <route edges="724068282_2 12998914_1 26962903"/>
    </vehicle>
    <vehicle id="234" depart="234.00">
        <route edges="27199063_1 27199091 -370814340_7 370814340_7"/>
    </vehicle>
    <vehicle id="241" depart="241.00">
        <route edges="724068298_1 724068298_2 724068298_3 724068298_4 370814340_7 370814340_4 370814340_3 724068296 473901225_1 473901225_2"/>
    </vehicle>
    <vehicle id="243" depart="243.00">
        <route edges="370814340_7 370814340_4 370814340_3 724068296 12511444_1 12511444_2"/>
    </vehicle>
    <vehicle id="251" depart="251.00">
        <route edges="370814340_4 370814340_3 724068296 12511444_1 12511444_2 691852300_1 691852300_2"/>
    </vehicle>
    <vehicle id="255" depart="255.00">
        <route edges="26963062_1 26962987_11 26962987_12 724068310_2 724068299_1 724068299_2 724068299_3 724068282_2 12998914_1 12998914_2 26962789_1 26962799"/>
    </vehicle>
    <vehicle id="258" depart="258.00">
        <route edges="691852300_1 691852300_2 12517214_2"/>
    </vehicle>
    <vehicle id="261" depart="261.00">
        <route edges="-473901225_1 -724068296 724068296"/>
    </vehicle>
    <vehicle id="263" depart="263.00">
        <route edges="-724068308_3 12525193_1 27270882_1 27270882_2 27270882_3 27270885_1 27270885_2"/>
    </vehicle>
    <vehicle id="267" depart="267.00">
        <route edges="691852298_1 691852298_2 691852300_1 691852300_2"/>
    </vehicle>
    <vehicle id="274" depart="274.00">
        <route edges="26962987_3 26962987_4 26962987_5 26962987_6 26962987_7 26962987_8 26962987_9 26962987_10 26962987_11 26962987_12 724068310_2 724068298_1 724068298_2 724068298_3 724068298_4 370814340_7 370814340_4 370814340_3 724068296 12511444_1 12511444_2 691852300_1"/>
    </vehicle>
    <vehicle id="275" depart="275.00">
        <route edges="724068284 724068285 724068283 724068282_1 724068282_2 12998914_1 12998914_2 26962789_1"/>
    </vehicle>
    <vehicle id="276" depart="276.00">
        <route edges="12504771_1 12504771_2 -724068308_3 -724068308_2 -724068308_4 26962987_1 26962987_2 26962987_3 26962987_4 26962987_5 26962987_6"/>
    </vehicle>
    <vehicle id="278" depart="278.00">
        <route edges="724068308_4 12508929 724068298_1 724068298_2 724068298_3 724068298_4 370814340_7 370814340_4 370814340_3 724068296 12511444_1 12511444_2 691852300_1 12518691"/>
    </vehicle>
    <vehicle id="279" depart="279.00">
        <route edges="-724068308_4 724068308_4 724068308_2 12525193_1 27270882_1 27270882_2 27270882_3"/>
    </vehicle>
    <vehicle id="280" depart="280.00">
        <route edges="-370814340_2 -370814340_5 -370814340_1 -724068308_3 12525193_1 12525193_2 12525193_4 12525193_3 12525193_5"/>
    </vehicle>
    <vehicle id="284" depart="284.00">
        <route edges="27160092 724068299_3 724068282_2 724068294 724068296 473901225_1 473901225_2"/>
    </vehicle>
    <vehicle id="286" depart="286.00">
        <route edges="26963041_1 26962987_8 26962987_9 26962987_10 26962987_11 26962987_12 724068310_2"/>
    </vehicle>
    <vehicle id="288" depart="288.00">
        <route edges="724068298_3 724068298_4 370814340_7 370814340_4 12517214_1"/>
    </vehicle>
    <vehicle id="292" depart="292.00">
        <route edges="724068310_2 724068298_1 724068298_2 724068298_3 724068298_4 370814340_7 370814340_4 370814340_3 724068296 12511444_1 12511444_2 691852300_1 12518691"/>
    </vehicle>
    <vehicle id="294" depart="294.00">
        <route edges="-473901225_1 12511444_1 12511444_2 691852300_1"/>
    </vehicle>
    <vehicle id="299" depart="299.00">
        <route edges="749768787 749768790 749768789_1 749768789_2"/>
    </vehicle>
    <vehicle id="305" depart="305.00">
        <route edges="12504771_2 -724068308_3 12515718_1 12515718_2 12515718_3 724068298_4 370814340_7 370814340_4 370814340_3 -370814340_3"/>
    </vehicle>
    <vehicle id="306" depart="306.00">
        <route edges="26963052_1 26962987_9 26962987_10 26962987_11 26962987_12 724068310_2 724068298_1 724068298_2 724068298_3 724068298_4 370814340_7 370814340_4 370814340_3 724068296 12511444_1 749768787 749768790 749768789_1 749768789_2"/>
    </vehicle>
    <vehicle id="307" depart="307.00">
        <route edges="-724068308_4 26962987_1 26962987_2 26962987_3 26962987_4 26962987_5 26962987_6 26962987_7 26962987_8 26962987_9 26962987_10 26962987_11 26962987_12 724068310_2 724068298_1 724068298_2 724068298_3 724068298_4 370814340_7 370814340_4 370814340_3 724068296 12511444_1 749768787 749768790 749768789_1 749768788 691852298_2"/>
    </vehicle>
    <vehicle id="308" depart="308.00">
        <route edges="724068284 724068285 724068283 724068282_1 724068282_2 724068294 724068296 12511444_1 12511444_2 691852300_1 12518691"/>
    </vehicle>
    <vehicle id="312" depart="312.00">
        <route edges="12515718_3 724068298_4"/>
    </vehicle>
    <vehicle id="315" depart="315.00">
        <route edges="26962987_3 26962987_4 26962987_5 26962987_6 26962987_7 26962987_8 26962987_9 26962987_10 26962987_11 26962987_12 724068310_2 724068298_1 724068298_2"/>
    </vehicle>
    <vehicle id="321" depart="321.00">
        <route edges="749768789_1 749768788 691852298_2 691852300_1"/>
    </vehicle>
    <vehicle id="326" depart="326.00">
        <route edges="26963007_1 26962987_3 26962987_4 26962987_5 26962987_6 26962987_7 26962987_8 26962987_9 26962987_10 26962987_11 26962987_12 724068310_2 724068298_1 724068298_2 724068298_3 724068298_4 370814340_7 370814340_4 370814340_3 724068296 12511444_1 12511444_2 691852300_1"/>
    </vehicle>
    <vehicle id="334" depart="334.00">
        <route edges="12504771_2 -724068308_3 -724068308_2 -724068308_4 26962987_1 26962987_2 26962987_3 26962987_4 26962987_5 26962987_6 26962987_7 26962987_8 26962987_9 26962987_10 26962987_11 26962987_12"/>
    </vehicle>
    <vehicle id="338" depart="338.00">
        <route edges="12515718_2 12515718_3 724068298_4 370814340_7 370814340_4 370814340_3 724068296 12511444_1 749768787 749768790 749768789_1"/>
    </vehicle>
    <vehicle id="340" depart="340.00">
        <route edges="-370814340_5 -370814340_1 -724068308_3 -724068308_2 -724068308_4 26962987_1 26962987_2 26962987_3 26962987_4 26962987_5"/>
    </vehicle>
    <vehicle id="341" depart="341.00">
        <route edges="-724068308_4 26962987_1 26962987_2 26962987_3 26962987_4 26962987_5 26962987_6 26962987_7 26962987_8 26962987_9 26962987_10 26962987_11 26962987_12 724068310_2 724068298_1 724068298_2 724068298_3 724068298_4 370814340_7 -370814340_7"/>
    </vehicle>
    <vehicle id="352" depart="352.00">
        <route edges="724068308_3 -724068308_3 12515718_1 12515718_2 12515718_3 724068298_4 370814340_7 370814340_4 370814340_3"/>
    </vehicle>
    <vehicle id="357" depart="357.00">
        <route edges="724068310_2 724068299_1 724068299_2 724068299_3 724068282_2 12998914_1 26962903"/>
    </vehicle>
    <vehicle id="359" depart="359.00">
        <route edges="26962987_9 26962987_10 26962987_11 26962987_12 724068310_2 724068299_1 724068299_2 724068299_3 724068282_2 12998914_1 12998914_2 26962789_1 26962789_2 26962789_5 26962789_4"/>
    </vehicle>
    <vehicle id="362" depart="362.00">
        <route edges="724068310_2 724068299_1 724068299_2 724068299_3 724068282_2 724068294"/>
    </vehicle>
    <vehicle id="365" depart="365.00">
        <route edges="12504771_2 -724068308_3 12525193_1 27270882_1"/>
    </vehicle>
    <vehicle id="367" depart="367.00">
        <route edges="724068308_4 724068308_2 12525193_1 12525193_2 12525193_4 12525193_3"/>
    </vehicle>
    <vehicle id="368" depart="368.00">
        <route edges="26962987_4 26962987_5 26962987_6 26962987_7 26962987_8 26962987_9 26962987_10 26962987_11 26962987_12 724068310_2 724068299_1 724068299_2 724068299_3 724068282_2 12998914_1 26962903"/>
    </vehicle>
    <vehicle id="370" depart="370.00">
        <route edges="-473901225_1"/>
    </vehicle>
    <vehicle id="379" depart="379.00">
        <route edges="-724068308_2 724068308_2 12525193_1 27270882_1 27270882_2 27270882_3 27270885_1 27270919"/>
    </vehicle>
    <vehicle id="384" depart="384.00">
        <route edges="-724068296 724068296 473901225_1"/>
    </vehicle>
    <vehicle id="389" depart="389.00">
        <route edges="-724068308_2 12508929 724068299_1 724068299_2 724068299_3 724068282_2 12998914_1 12998914_2 26962789_1 26962799"/>
    </vehicle>
    <vehicle id="391" depart="391.00">
        <route edges="-724068308_3 -724068308_2 -724068308_4 26962987_1"/>
    </vehicle>
    <vehicle id="396" depart="396.00">
        <route edges="26963013_1 26962987_4 26962987_5 26962987_6 26962987_7 26962987_8 26962987_9 26962987_10 26962987_11 26962987_12 724068310_2 724068298_1 724068298_2 724068298_3 724068298_4 370814340_7 370814340_4 370814340_3 724068296 -724068296"/>
    </vehicle>
    <vehicle id="402" depart="402.00">
        <route edges="-724068308_2 724068308_2 12525193_1 27270882_1 27270882_2 27270882_3 27270885_1 27270885_2"/>
    </vehicle>
    <vehicle id="403" depart="403.00">
        <route edges="-724068308_3 -724068308_2 -724068308_4 26962987_1 26962987_2"/>
    </vehicle>
    <vehicle id="406" depart="406.00">
        <route edges="26962997_1 26962987_2 26962987_3 26962987_4 26962987_5 26962987_6 26962987_7 26962987_8 26962987_9 26962987_10 26962987_11 26962987_12 724068310_2 724068299_1 724068299_2"/>
    </vehicle>
    <vehicle id="414" depart="414.00">
        <route edges="12508929 724068298_1 724068298_2 724068298_3 724068298_4 370814340_7 370814340_4 370814340_3 724068296 12511444_1 749768787 749768790 749768789_1"/>
    </vehicle>
    <vehicle id="415" depart="415.00">
        <route edges="-724068308_2 -724068308_4 26962987_1 26962987_2 26962987_3 26962987_4 26962987_5 26962987_6 26962987_7 26962987_8 26962987_9 26962987_10"/>
    </vehicle>
    <vehicle id="417" depart="417.00">
        <route edges="724068299_1 724068299_2 724068299_3 724068282_2 12998914_1 12998914_2 26962789_1"/>
    </vehicle>
    <vehicle id="421" depart="421.00">
        <route edges="724068282_2 724068294 724068296 12511444_1 749768787 749768790 749768789_1 749768788 691852298_2"/>
    </vehicle>
    <vehicle id="427" depart="427.00">
        <route edges="724068298_2 724068298_3"/>
    </vehicle>
    <vehicle id="428" depart="428.00">
        <route edges="26963052_1 26962987_9 26962987_10 26962987_11 26962987_12 724068310_2 724068298_1 724068298_2 724068298_3 724068298_4 370814340_7 370814340_4 370814340_3 724068296"/>
    </vehicle>
    <vehicle id="431" depart="431.00">
        <route edges="26963062_1 26962987_11 26962987_12 724068310_2 724068299_1 724068299_2 724068299_3 724068282_2 12998914_1 12998914_2 26962789_1 26962789_2 26962789_5 26962789_4"/>
    </vehicle>
    <vehicle id="435" depart="435.00">
        <route edges="26962987_5 26962987_6 26962987_7 26962987_8"/>
    </vehicle>
    <vehicle id="443" depart="443.00">
        <route edges="724068310_2 724068299_1 724068299_2 724068299_3 724068282_2 12998914_1 12998914_2 26962789_1 26962799 26962789_3"/>
    </vehicle>
    <vehicle id="448" depart="448.00">
        <route edges="26963017_1 26962987_5 26962987_6 26962987_7 26962987_8 26962987_9 26962987_10 26962987_11 26962987_12 724068310_2 724068298_1 724068298_2 724068298_3 724068298_4 370814340_7 370814340_4 370814340_3 724068296 12511444_1 12511444_2 691852299"/>
    </vehicle>
    <vehicle id="452" depart="452.00">
        <route edges="724068286 724068284 724068285 724068283 724068282_1 724068282_2 724068294"/>
    </vehicle>
    <vehicle id="455" depart="455.00">
        <route edges="-370814340_2 12509470"/>
    </vehicle>
    <vehicle id="462" depart="462.00">
        <route edges="370814340_1 -370814340_1 -724068308_3 -724068308_2 12508929 724068298_1 724068298_2"/>
    </vehicle>
    <vehicle id="466" depart="466.00">
        <route edges="26962987_3 26962987_4 26962987_5 26962987_6 26962987_7 26962987_8 26962987_9 26962987_10 26962987_11"/>
    </vehicle>
    <vehicle id="467" depart="467.00">
        <route edges="-370814340_5 -370814340_1 -724068308_3 12525193_1 12525193_2 27160303"/>
    </vehicle>
    <vehicle id="468" depart="468.00">
        <route edges="724068286 724068284 724068285 724068283 724068282_1 724068282_2 12998914_1 12998914_2 26962789_1"/>
    </vehicle>
    <vehicle id="469" depart="469.00">
        <route edges="370814340_1 -370814340_1 -724068308_3 12525193_1"/>
    </vehicle>
    <vehicle id="472" depart="472.00">
        <route edges="724068310_2 724068298_1 724068298_2 724068298_3 724068298_4 370814340_7 370814340_4 370814340_3"/>
    </vehicle>
    <vehicle id="474" depart="474.00">
        <route edges="370814340_3 -370814340_3 12517214_1"/>
    </vehicle>
    <vehicle id="475" depart="475.00">
        <route edges="370814340_5 -370814340_5 -370814340_1 -724068308_3 -724068308_2 -724068308_4 26962987_1 26962987_2 26962987_3 26962987_4 26962987_5 26962987_6 26962987_7"/>
    </vehicle>
    <vehicle id="479" depart="479.00">
        <route edges="370814340_2 -370814340_2 -370814340_5 -370814340_1 -724068308_3 -724068308_2 12508929 724068299_1 724068299_2 724068299_3 724068282_2 12998914_1"/>
    </vehicle>
    <vehicle id="480" depart="480.00">
        <route edges="26962987_4 26962987_5 26962987_6 26962987_7"/>
    </vehicle>
    <vehicle id="483" depart="483.00">
        <route edges="724068294 -370814340_3 12517214_1 12517214_2"/>
    </vehicle>
    <vehicle id="485" depart="485.00">
        <route edges="12508929 724068298_1 724068298_2 724068298_3 724068298_4 370814340_7 370814340_4 370814340_3 724068296 12511444_1 749768787 749768790 749768789_1 749768788 691852298_2"/>
    </vehicle>
    <vehicle id="487" depart="487.00">
        <route edges="724068285 724068283 724068282_1 724068282_2 724068294 -370814340_3"/>
    </vehicle>
    <vehicle id="489" depart="489.00">
        <route edges="26963061_1 26962987_10 26962987_11 26962987_12 724068310_2 724068299_1 724068299_2 724068299_3 724068282_2 12998914_1 12998914_2 26962789_1"/>
    </vehicle>
    <vehicle id="490" depart="490.00">
        <route edges="724068286 724068284 27592206"/>
    </vehicle>
    <vehicle id="491" depart="491.00">
        <route edges="724068308_2 -724068308_2 12508929 724068299_1 724068299_2 724068299_3 724068282_2 12998914_1 12998914_2 26962789_1 26962799 26962789_3"/>
    </vehicle>
    <vehicle id="492" depart="492.00">
        <route edges="26962987_9 26962987_10 26962987_11 26962987_12 724068310_2 724068298_1 724068298_2 724068298_3 724068298_4 370814340_7 370814340_4 370814340_3 724068296 12511444_1 12511444_2 691852300_1 12518691"/>
    </vehicle>
    <vehicle id="493" depart="493.00">
        <route edges="26963067_1 26962987_12 724068310_2 724068299_1 724068299_2 724068299_3 724068282_2 12998914_1 12998914_2"/>
    </vehicle>
    <vehicle id="496" depart="496.00">
        <route edges="26963041_1 26962987_8 26962987_9 26962987_10 26962987_11 26962987_12 724068310_2 724068299_1 724068299_2 724068299_3 724068282_2 12998914_1 12998914_2 26962789_1"/>
    </vehicle>
    <vehicle id="497" depart="497.00">
        <route edges="26962987_2 26962987_3 26962987_4 26962987_5 26962987_6 26962987_7 26962987_8 26962987_9"/>
    </vehicle>
    <vehicle id="503" depart="503.00">
        <route edges="-473901225_2 -473901225_1 473901225_1"/>
    </vehicle>