<?xml version='1.0' encoding='UTF-8'?>
<nodes>
  <node id="113821593" x="-274.498461" y="487.889636" shape="-272.691111,483.798977 -270.655812,485.601832 -270.362628,489.591073 -272.296185,491.781933 -276.290933,491.986836 -278.106951,490.531377 -278.776948,486.587889 -276.686578,483.989361 -272.691111,483.798977 -272.691111,483.798977"/>
  <node id="113821595" x="-278.496532" y="403.984541" shape="-277.054956,399.751119 -276.514848,403.714487 -276.498799,403.889349 -276.308415,407.884816 -280.303882,408.075200 -282.066296,406.678382 -282.793464,402.745034 -281.018324,400.291228 -277.054956,399.751119 -277.054956,399.751119"/>
  <node id="113821610" x="-301.851721" y="188.85314" shape="-305.811368,186.774391 -297.830835,186.895469 -297.873052,190.895246 -299.828392,192.841390 -303.828324,192.864753 -305.890508,190.773608 -305.811368,186.774391 -305.811368,186.774391"/>
  <node id="113850299" x="238.596144" y="395.989102" shape="235.494112,392.767705 243.012421,395.284476 241.809611,399.099348 238.456575,400.459060 234.936437,398.559422 234.157807,396.537890 235.494112,392.767705 235.494112,392.767705"/>
  <node id="113850311" x="-54.894909" y="297.151484" shape="-58.584484,294.624225 -54.621921,295.170202 -54.360459,295.224216 -50.505922,296.293115 -51.574822,300.147652 -53.522273,301.407758 -57.476347,300.803357 -59.130461,298.586789 -58.584484,294.624225 -58.584484,294.624225"/>
  <node id="113874364" x="-205.34181" y="481.373211" shape="-198.647367,476.880502 -197.865344,484.390239 -211.736840,486.282752 -212.277558,482.319468 -212.323711,481.876262 -212.611169,477.886605 -198.647367,476.880502 -198.647367,476.880502"/>
  <node id="113874369" x="-224.696913" y="185.908904" shape="-231.589197,181.726032 -217.594048,182.094548 -217.564813,189.668313 -231.556700,190.144859 -231.692857,186.147177 -231.694488,185.724646 -231.589197,181.726032 -231.589197,181.726032"/>
  <node id="113874375" x="-221.256428" y="81.850536" shape="-227.812842,77.158688 -213.885580,78.583948 -214.543019,86.314855 -228.510956,85.367896 -228.240397,81.377056 -228.220059,81.137906 -227.812842,77.158688 -227.812842,77.158688"/>
  <node id="113874380" x="-216.519442" y="34.628007" shape="-222.919425,29.724924 -209.046025,31.603433 -209.952014,39.304425 -223.882589,37.911918 -223.484730,33.931753 -223.456142,33.688752 -222.919425,29.724924 -222.919425,29.724924"/>
  <node id="113874389" x="-196.686957" y="-81.160247" shape="-200.548952,-92.739754 -187.128774,-88.752423 -190.041276,-78.744688 -198.420306,-80.162498 -203.743167,-81.618393 -203.409050,-88.829241 -200.548952,-92.739754 -200.548952,-92.739754"/>
  <node id="113915731" x="301.572393" y="-94.95044" shape="298.732212,-99.443031 302.567227,-98.306078 303.305721,-97.991094 306.780754,-96.010147 303.314098,-89.928840 298.866587,-91.389736 296.742544,-92.731755 298.732212,-99.443031 298.732212,-99.443031"/>
  <node id="113915746" x="165.413563" y="-123.540968" shape="161.883623,-127.514572 169.771613,-126.583565 169.007737,-119.625369 167.072131,-119.387758 163.086136,-119.722188 161.006548,-120.569736 161.883623,-127.514572 161.883623,-127.514572"/>
  <node id="113915750" x="-62.237808" y="-150.560877" shape="-62.713393,-155.007653 -57.875520,-153.597395 -58.649097,-146.640271 -60.564954,-146.413401 -64.552076,-146.734108 -66.468064,-147.342969 -65.988778,-154.326541 -62.713393,-155.007653 -62.713393,-155.007653"/>
  <node id="113926354" x="240.438554" y="454.247607" shape="241.905345,450.022856 242.947844,457.949426 238.982672,458.476130 236.371200,456.106808 236.510781,452.109244 237.938827,450.539324 241.905345,450.022856 241.905345,450.022856"/>
  <node id="113926367" x="90.873956" y="453.8671" shape="94.428453,451.153144 95.177818,455.082324 94.334026,456.700458 90.683311,458.335171 87.151473,456.345632 86.657641,452.376233 94.428453,451.153144 94.428453,451.153144"/>
  <node id="113926379" x="27.756578" y="514.577279"/>
  <node id="113927525" x="144.834231" y="112.460333" shape="143.177692,108.306314 147.163523,108.642690 149.024311,110.897249 148.598746,114.874546 146.455050,116.628419 142.472253,116.257840 140.744907,114.270699 140.932343,110.275093 143.177692,108.306314 143.177692,108.306314"/>
  <node id="113927527" x="141.793962" y="145.135597" shape="140.173143,140.967511 144.155940,141.338090 143.785360,145.320887 143.746381,145.569255 142.879065,149.474093 138.974227,148.606777 138.590239,148.255879 137.375503,144.444787 140.173143,140.967511 140.173143,140.967511"/>
  <node id="113996062" x="89.123453" y="109.833631" shape="85.262398,107.577028 93.213332,108.024518 93.024671,112.020066 90.742252,114.002502 86.759635,113.629993 85.001538,111.568513 85.262398,107.577028 85.262398,107.577028"/>
  <node id="113996071" x="-85.330643" y="95.342534" shape="-86.888565,91.150532 -82.911795,91.580995 -81.194512,93.641821 -81.488394,97.631011 -89.465834,97.045529 -89.174154,93.056178 -86.888565,91.150532 -86.888565,91.150532"/>
  <node id="114001735" x="-42.344424" y="540.440065"/>
  <node id="114001741" x="-53.634887" y="464.823243" shape="-52.775284,460.434498 -49.471771,463.189699 -49.830182,467.173609 -50.839978,468.314444 -54.750902,469.153891 -56.630122,461.502314 -52.775284,460.434498 -52.775284,460.434498"/>
  <node id="114109801" x="22.7281" y="-355.828136" shape="20.270743,-359.564631 26.288782,-358.533971 27.029177,-354.603092 23.286972,-351.391058 19.513761,-352.718792 18.264490,-356.104147 20.270743,-359.564631 20.270743,-359.564631"/>
  <node id="28099345" x="-31.448317" y="-387.231471" shape="-34.569296,-394.665144 -23.459425,-386.146296 -27.500455,-380.201935 -39.508832,-387.399077 -37.452506,-390.830042 -37.003253,-391.490895 -34.569296,-394.665144 -34.569296,-394.665144"/>
  <node id="295197229" x="248.517025" y="511.356391" shape="249.731563,507.052335 252.208067,508.831276 252.751742,512.794156 251.026833,515.057858 247.061736,515.585118 245.802503,507.802327 249.731563,507.052335 249.731563,507.052335"/>
  <node id="295459942" x="-10.482785" y="468.708182" shape="-14.287132,466.357237 -10.303276,466.716254 -6.318567,467.077449 -6.679668,471.061116 -8.349141,472.638521 -12.346869,472.773301 -14.646150,470.341092 -14.287132,466.357237 -14.287132,466.357237"/>
  <node id="295459945" x="-7.088696" y="569.380708" shape="-5.224612,565.315589 -2.722109,568.414829 -3.696041,572.294450 -7.575662,571.320518 -8.191415,571.049243 -11.528486,568.843805 -9.323048,565.506734 -9.222340,565.450369 -5.224612,565.315589 -5.224612,565.315589"/>
  <node id="295460070" x="-28.574913" y="467.077754" shape="-32.379618,464.727388 -28.395708,465.085799 -24.411548,465.444844 -24.770566,469.428699 -26.390741,470.980240 -30.386398,471.166583 -32.738029,468.711298 -32.379618,464.727388 -32.379618,464.727388"/>
  <node id="295460248" x="8.65296" y="519.518367" shape="10.303666,515.362026 11.567022,516.125987 13.115301,519.814189 10.987058,523.333073 7.001654,523.674470 6.318311,515.703998 10.303666,515.362026 10.303666,515.362026"/>
  <node id="295461450" x="-59.624635" y="338.178822" shape="-61.386244,334.068258 -57.393150,334.303197 -55.482140,336.493670 -55.791017,340.481727 -57.823046,342.272021 -61.818241,342.076012 -61.622232,338.080818 -61.621182,338.061353 -61.386244,334.068258 -61.386244,334.068258"/>
  <node id="295462726" x="258.207873" y="135.239197" shape="256.983354,130.937970 260.914143,131.678845 262.577652,134.287864 261.590807,138.164220 253.838392,136.191896 254.824025,132.315231 256.983354,130.937970 256.983354,130.937970"/>
  <node id="295462889" x="298.054151" y="-76.270672" shape="296.829071,-80.571739 300.759957,-79.831376 302.524840,-76.156929 300.645570,-72.625875 299.279648,-71.969724 295.348691,-72.709705 293.701415,-75.244177 294.621314,-79.136964 296.829071,-80.571739 296.829071,-80.571739"/>
  <node id="295462978" x="294.849437" y="-59.24647" shape="293.623940,-63.547418 297.554897,-62.807437 299.244073,-60.075432 298.149388,-56.228139 296.073784,-54.945194 292.143024,-55.686227 290.455097,-58.415942 291.548411,-62.263625 293.623940,-63.547418 293.623940,-63.547418"/>
  <node id="295463020" x="291.492613" y="-41.440422" shape="290.268266,-45.741698 294.199026,-45.000665 295.890717,-42.250782 294.779764,-38.408155 292.716956,-37.139145 288.786198,-37.880181 287.094453,-40.630365 288.205671,-44.472915 290.268266,-45.741698 290.268266,-45.741698"/>
  <node id="295463094" x="288.075091" y="-23.312482" shape="286.850748,-27.613759 290.781506,-26.872723 292.463890,-24.171811 291.395833,-20.317040 289.299715,-19.011285 285.368908,-19.752064 283.686048,-22.454403 284.755202,-26.308870 286.850748,-27.613759 286.850748,-27.613759"/>
  <node id="295463171" x="284.677867" y="-5.285751" shape="283.453243,-9.586948 287.384050,-8.846169 289.058690,-6.184856 288.025644,-2.320555 285.902927,-0.984678 281.972045,-1.725059 280.297121,-4.386271 281.329836,-8.250660 283.453243,-9.586948 283.453243,-9.586948"/>
  <node id="295463290" x="281.341442" y="12.428221" shape="280.116382,8.127148 284.047264,8.867529 285.721288,11.524371 284.692430,15.389788 282.566709,16.729235 278.635791,15.989043 276.961432,13.331280 277.990989,9.466048 280.116382,8.127148 280.116382,8.127148"/>
  <node id="295463363" x="277.974734" y="30.307713" shape="276.749467,26.006699 280.680385,26.746891 282.354520,29.403571 281.325919,33.269057 279.200107,34.608697 275.269170,33.868601 273.594820,31.211238 274.623966,27.345897 276.749467,26.006699 276.749467,26.006699"/>
  <node id="295463488" x="274.466493" y="48.941355" shape="273.241120,44.640371 277.172057,45.380467 278.854058,48.075748 277.791518,51.932043 275.690056,53.242854 271.759432,52.501105 270.078860,49.806617 271.141704,45.950406 273.241120,44.640371 273.241120,44.640371"/>
  <node id="295463533" x="271.08896" y="66.839345" shape="269.865397,62.537846 273.796021,63.279595 275.470832,65.945365 274.433267,69.808454 272.314621,71.140247 268.383635,70.400415 266.707437,67.735035 267.743495,63.871541 269.865397,62.537846 269.865397,62.537846"/>
  <node id="295463587" x="267.661649" y="85.049858" shape="266.435988,80.748956 270.366974,81.488788 272.034308,84.111855 271.035647,87.985183 268.887529,89.350697 264.956506,88.611065 263.289182,85.988760 264.287048,82.115226 266.435988,80.748956 266.435988,80.748956"/>
  <node id="295463670" x="264.26472" y="103.103984" shape="263.038840,98.803145 266.969863,99.542777 268.638170,102.169674 267.636238,106.042158 265.489239,107.405211 261.558450,106.664336 259.891467,104.039215 260.892584,100.166520 263.038840,98.803145 263.038840,98.803145"/>
  <node id="295468676" x="-4.330513" y="-294.757624" shape="-4.623643,-299.220143 -0.936376,-297.669639 0.059612,-295.610149 -1.014417,-291.757039 -4.021773,-290.296158 -7.714442,-291.833752 -6.176847,-295.526421 -4.623643,-299.220143 -4.623643,-299.220143"/>
  <node id="295468769" x="55.222039" y="-291.984038" shape="54.950163,-296.447902 58.630005,-294.879857 59.078462,-289.719529 55.724286,-287.540194 51.552573,-289.427670 50.975265,-293.385790 54.950163,-296.447902 54.950163,-296.447902"/>
  <node id="295469008" x="58.658763" y="-286.694636"/>
  <node id="297981956" x="269.562212" y="-219.54566" shape="270.778053,-223.849348 273.734667,-221.155200 273.765033,-221.074155 273.306700,-217.100500 269.730852,-217.315960 269.333046,-217.558833 267.677268,-220.748568 270.778053,-223.849348 270.778053,-223.849348"/>
  <node id="297990169" x="100.94391" y="315.40591" shape="99.172313,311.299641 103.165967,311.524871 102.879160,319.322937 98.882063,319.475311 96.898421,317.312220 96.991569,313.313304 99.172313,311.299641 99.172313,311.299641"/>
  <node id="297992456" x="-29.089164" y="-235.296991" shape="-29.397981,-239.758452 -25.705286,-238.220921 -27.242816,-234.528226 -28.792611,-230.834698 -32.481066,-232.382373 -33.519429,-234.686456 -32.235751,-238.474882 -29.397981,-239.758452 -29.397981,-239.758452"/>
  <node id="297992590" x="-87.033814" y="-262.278122" shape="-86.847321,-266.746368 -83.347322,-264.809875 -82.561770,-262.306759 -84.327678,-258.717669 -87.916768,-260.483577 -88.783814,-263.246368 -86.847321,-266.746368 -86.847321,-266.746368"/>
  <node id="298477390" x="-242.167072" y="92.306235" shape="-245.089822,88.921337 -241.397663,90.460156 -241.302313,90.502852 -237.695546,92.232370 -239.425065,95.839137 -240.389541,96.409938 -244.383516,96.190482 -246.628640,92.613496 -245.089822,88.921337 -245.089822,88.921337"/>
  <node id="298477570" x="-298.133867" y="72.087959"/>
  <node id="298478034" x="-222.409211" y="98.854432" shape="-229.122620,94.390113 -215.154683,95.337072 -215.516127,103.035985 -229.511346,102.670147 -229.406821,98.671513 -229.393180,98.380952 -229.122620,94.390113 -229.122620,94.390113"/>
  <node id="299343485" x="-42.928884" y="-202.313831" shape="-43.225437,-206.776124 -39.536982,-205.228449 -38.498134,-202.920835 -39.784830,-199.133434 -42.453299,-197.867055 -46.200954,-199.265297 -44.802711,-203.012952 -44.773112,-203.087668 -43.225437,-206.776124 -43.225437,-206.776124"/>
  <node id="299343493" x="-23.502692" y="-195.714158" shape="-23.987641,-200.159923 -20.237050,-198.769576 -19.031008,-195.650575 -20.870548,-192.098661 -27.933442,-195.107154 -26.646746,-198.894555 -23.987641,-200.159923 -23.987641,-200.159923"/>
  <node id="299343508" x="-5.59543" y="-244.032217"/>
  <node id="299343846" x="-15.183198" y="-218.156782" shape="-15.668792,-222.602476 -11.917999,-221.212674 -10.954299,-219.611571 -11.482027,-215.646536 -14.698249,-213.711017 -18.448840,-215.101364 -15.668792,-222.602476 -15.668792,-222.602476"/>
  <node id="299343847" x="58.945017" y="-208.290643" shape="57.470087,-212.512560 61.437592,-212.003737 60.928770,-208.036232 60.419288,-204.068496 56.451862,-204.577938 54.716118,-206.835854 55.243846,-210.800889 57.470087,-212.512560 57.470087,-212.512560"/>
  <node id="299345208" x="-219.247513" y="288.37458" shape="-212.641283,283.753139 -212.276657,287.736485 -212.265612,287.871529 -211.978154,291.861186 -225.941956,292.867289 -226.582995,285.029329 -212.641283,283.753139 -212.641283,283.753139"/>
  <node id="299360331" x="-260.007007" y="-196.091131" shape="-260.984756,-200.455075 -258.258374,-200.207231 -255.664947,-197.161885 -255.881236,-194.365438 -258.912099,-191.755099 -261.522438,-194.785961 -261.557035,-194.827242 -264.084812,-197.927298 -260.984756,-200.455075 -260.984756,-200.455075"/>
  <node id="302979770" x="246.897366" y="502.871309" shape="248.353248,498.642786 249.611888,506.425373 245.682828,507.175365 243.307288,505.538019 242.609951,501.599273 244.388076,499.169490 248.353248,498.642786 248.353248,498.642786"/>
  <node id="308799599" x="-287.815518" y="-57.345356" shape="-285.815991,-61.345592 -283.392924,-56.681534 -285.693019,-53.408987 -288.965566,-55.709083 -292.238075,-58.009424 -289.937798,-61.281843 -289.815991,-61.345120 -285.815991,-61.345592 -285.815991,-61.345592"/>
  <node id="308799620" x="-220.541337" y="74.862852" shape="-227.108765,70.186434 -213.178190,71.578941 -213.576049,75.559106 -213.577706,75.575482 -213.984923,79.554700 -227.912185,78.129440 -227.108765,70.186434 -227.108765,70.186434"/>
  <node id="3575163113" x="-39.93409" y="-396.790611" shape="-43.524488,-404.009270 -31.892120,-396.219020 -36.199632,-389.645415 -47.985907,-397.200793 -45.827227,-400.568300 -45.750274,-400.685736 -43.524488,-404.009270 -43.524488,-404.009270"/>
  <node id="3745003439" x="-169.728147" y="-161.033707" shape="-175.825359,-180.342358 -161.840901,-179.682872 -161.478552,-179.525440 -151.453331,-169.753289 -160.157515,-156.489149 -164.658316,-154.764990 -177.702802,-159.848432 -175.825359,-180.342358 -175.825359,-180.342358"/>
  <node id="4692605423" x="101.954046" y="347.557664" shape="103.800221,343.484380 106.392383,347.008876 105.056078,350.779061 97.518018,348.124809 98.838713,344.349128 99.803124,343.636754 103.800221,343.484380 103.800221,343.484380"/>
  <node id="5465779539" x="-67.299417" y="96.670887" shape="-71.141666,94.382410 -67.152476,94.676292 -63.162329,94.972504 -63.458458,98.961527 -65.140906,100.587624 -69.137700,100.747738 -71.435548,98.371600 -71.141666,94.382410 -71.141666,94.382410"/>
  <node id="7011181054" x="-243.286406" y="485.59575" shape="-239.508486,483.202568 -239.105108,487.182177 -241.018363,489.450096 -245.009057,489.722792 -247.129055,487.883554 -247.422239,483.894313 -239.508486,483.202568 -239.508486,483.202568"/>
  <node id="7011181055" x="-239.211358" y="545.230932" shape="-237.284185,544.096911 -237.216011,545.094584 -237.212885,545.152794 -237.173816,546.152031 -241.170762,546.308306 -241.274879,544.369607 -237.284185,544.096911 -237.284185,544.096911"/>
  <node id="7011181059" x="-255.093475" y="546.144534" shape="-253.141159,545.054368 -252.939210,546.743817 -256.865461,547.508376 -257.056601,546.526814 -257.091394,546.235740 -257.136997,545.236780 -253.141159,545.054368 -253.141159,545.054368"/>
  <node id="7011181060" x="-256.90733" y="506.411015" shape="-254.980807,502.375113 -254.726999,510.315648 -258.722837,510.498060 -260.870091,508.483821 -260.943231,504.484490 -258.980138,502.448255 -254.980807,502.375113 -254.980807,502.375113"/>
  <node id="7011181062" x="-273.532851" y="506.715066" shape="-271.740379,502.617866 -269.570090,504.642260 -269.496950,508.641591 -271.435262,510.664765 -275.434057,510.762956 -275.735127,502.822769 -271.740379,502.617866 -271.740379,502.617866"/>
  <node id="7271009710" x="-174.932838" y="534.661536" shape="-173.596441,530.393745 -172.958442,534.342537 -172.949677,534.402554 -172.431712,538.368876 -176.398034,538.886841 -178.659307,537.134072 -179.146748,533.163883 -177.545233,531.031743 -173.596441,530.393745 -173.596441,530.393745"/>
  <node id="7271009711" x="-197.825454" y="537.472184" shape="-191.388501,532.617739 -190.881836,536.585520 -190.376461,540.556419 -204.264437,542.323936 -205.275737,534.391066 -191.388501,532.617739 -191.388501,532.617739"/>
  <node id="7271009740" x="-64.541298" y="-121.923221" shape="-66.214152,-126.070697 -62.227030,-125.749990 -60.076111,-122.172430 -61.662819,-118.500597 -62.867319,-117.776199 -66.854528,-118.095824 -66.534903,-122.083034 -66.214152,-126.070697 -66.214152,-126.070697"/>
  <node id="7271009745" x="-82.038356" y="64.927208" shape="-83.595885,60.735060 -79.619155,61.165896 -79.461556,61.272061 -77.568158,64.795560 -80.480434,69.119210 -84.457204,68.688747 -84.026741,64.711977 -83.595885,60.735060 -83.595885,60.735060"/>
  <node id="7869658104" x="-21.187288" y="-381.288558" shape="-23.646289,-385.023972 -20.184923,-383.019241 -16.723678,-381.012547 -18.729931,-377.552063 -21.373781,-376.820312 -24.873780,-378.756805 -25.651019,-381.562606 -23.646289,-385.023972 -23.646289,-385.023972"/>
  <node id="Custom76" x="-340.624369" y="-157.547735"/>
  <node id="Custom77" x="-288.89516000000003" y="-157.26940499999998"/>
  <node id="Custom78" x="-765.0022019999999" y="22.573394"/>
  <node id="Custom79" x="68.16834800000001" y="587.655358"/>
  <node id="Custom80" x="-344.63075100000003" y="416.21092999999996"/>
  <node id="Custom81" x="476.210974" y="-478.138637"/>
  <node id="Custom82" x="260.21156900000005" y="-388.50523100000004"/>
  <node id="Custom83" x="283.665859" y="506.534256"/>
  <node id="Custom84" x="15.415970000000002" y="343.990742"/>
  <node id="Custom85" x="317.204439" y="-214.050468"/>
  <node id="Custom86" x="-213.743981" y="-235.488873"/>
  <node id="Custom87" x="183.739561" y="514.05311"/>
  <node id="Custom88" x="-287.822348" y="-115.14861400000001"/>
  <node id="Custom89" x="-249.2356" y="67.433749"/>
  <node id="Custom90" x="44.927796" y="553.829639"/>
  <node id="Custom91" x="301.725936" y="503.985982"/>
  <node id="Custom92" x="331.021162" y="500.013249"/>
  <node id="Custom93" x="-355.925248" y="501.724013"/>
  <node id="Custom94" x="255.038692" y="560.400614"/>
  <node id="Custom95" x="491.684797" y="472.722303"/>
  <node id="Custom96" x="109.217976" y="-714.922777"/>
  <node id="Custom97" x="118.834906" y="-741.551273"/>
  <node id="Custom98" x="-333.520064" y="186.225684"/>
  <node id="Custom99" x="1113.318278" y="986.528397"/>
  <node id="Custom100" x="225.891227" y="-93.323386"/>
  <node id="Custom101" x="320.395361" y="-64.380405"/>
  <node id="Custom102" x="222.221369" y="-79.883633"/>
  <node id="Custom103" x="334.007723" y="-48.104617"/>
  <node id="Custom104" x="218.623608" y="-62.513233"/>
  <node id="Custom105" x="331.200724" y="-29.960294000000005"/>
  <node id="Custom106" x="215.054725" y="-43.566922"/>
  <node id="Custom107" x="326.82648700000004" y="-12.575478"/>
  <node id="Custom108" x="212.27327" y="-24.635071"/>
  <node id="Custom109" x="322.441127" y="4.809523"/>
  <node id="Custom110" x="208.681625" y="-6.92571"/>
  <node id="Custom111" x="318.066993" y="22.203465"/>
  <node id="Custom112" x="205.09213" y="10.902746"/>
  <node id="Custom113" x="312.905193" y="39.602665"/>
  <node id="Custom114" x="202.285025" y="29.046794"/>
  <node id="Custom115" x="309.336095" y="58.549115"/>
  <node id="Custom116" x="197.925133" y="47.2193"/>
  <node id="Custom117" x="304.950604" y="75.934043"/>
  <node id="Custom118" x="194.356028" y="66.165514"/>
  <node id="Custom119" x="299.78870400000005" y="93.333183"/>
  <node id="Custom120" x="191.559907" y="84.309315"/>
  <node id="Custom121" x="293.839474" y="110.755896"/>
  <node id="Custom122" x="314.788321" y="-195.180034"/>
  <node id="Custom123" x="319.36713599999996" y="-231.61475"/>
  <node id="Custom124" x="-272.015813" y="-210.818682"/>
  <node id="Custom125" x="-250.793255" y="-17.497105"/>
  <node id="Custom126" x="-338.961248" y="-77.220354"/>
  <node id="Custom127" x="-163.084916" y="770.187691"/>
  <node id="Custom128" x="-236.878121" y="756.715375"/>
  <node id="Custom129" x="576.274921" y="169.226988"/>
  <node id="Custom130" x="-257.06701300000003" y="497.67974399999997"/>
  <node id="Custom131" x="-185.704739" y="467.990551"/>
  <node id="Custom132" x="-164.973544" y="610.924948"/>
  <node id="Custom133" x="398.213556" y="-671.117336"/>
</nodes>
