<?xml version="1.0" encoding="UTF-8"?>

<!-- generated on Wed Dec 23 10:04:17 2020 by Netedit Version 0.30.0
<?xml version="1.0" encoding="UTF-8"?>

<configuration xmlns:xsi="http://www.w3.org/2001/XMLSchema-instance" xsi:noNamespaceSchemaLocation="http://sumo.dlr.de/xsd/netconvertConfiguration.xsd">

    <input>
        <sumo-net-file value="/Users/mattfranchi/OneDrive%20-%20Clemson%20University/Clemson%20University/Research/SUMO/Tests/ClemsonArea/worlds/perimeter_net/sumo.net.xml"/>
    </input>

    <output>
        <output-file value="/Users/mattfranchi/OneDrive%20-%20Clemson%20University/Clemson%20University/Research/SUMO/Tests/ClemsonArea/worlds/perimeter_net/sumo.net.xml"/>
    </output>

    <processing>
        <no-turnarounds value="true"/>
        <offset.disable-normalization value="true"/>
        <lefthand value="false"/>
        <junctions.corner-detail value="5"/>
        <rectangular-lane-cut value="false"/>
    </processing>

</configuration>
-->

<net version="0.27" junctionCornerDetail="5" xmlns:xsi="http://www.w3.org/2001/XMLSchema-instance" xsi:noNamespaceSchemaLocation="http://sumo.dlr.de/xsd/net_file.xsd">

    <location netOffset="765.00,741.55" convBoundary="0.00,0.00,1878.32,1728.08" origBoundary="-765.00,-741.55,1113.32,986.53" projParameter="!"/>

    <edge id=":113821593_0" function="internal">
        <lane id=":113821593_0_0" index="0" speed="13.89" length="6.15" width="4.00" shape="490.66,1233.43 490.33,1231.75 489.54,1230.65 488.29,1230.12 486.57,1230.16"/>
    </edge>
    <edge id=":113821593_1" function="internal">
        <lane id=":113821593_1_0" index="0" speed="13.89" length="0.10" width="4.00" shape="490.66,1233.43 490.64,1233.44"/>
    </edge>
    <edge id=":113821593_2" function="internal">
        <lane id=":113821593_2_0" index="0" speed="13.89" length="7.99" width="4.00" shape="494.50,1229.19 492.13,1229.37 490.52,1229.54 488.91,1229.77 486.57,1230.16"/>
    </edge>
    <edge id=":113821593_3" function="internal">
        <lane id=":113821593_3_0" index="0" speed="13.89" length="6.50" width="4.00" shape="494.50,1229.19 492.74,1229.57 491.51,1230.40 490.81,1231.69 490.64,1233.44"/>
    </edge>
    <edge id=":113821595_0" function="internal">
        <lane id=":113821595_0_0" index="0" speed="13.89" length="6.11" width="4.00" shape="486.64,1149.54 486.32,1147.86 485.53,1146.76 484.29,1146.25 482.58,1146.32"/>
    </edge>
    <edge id=":113821595_1" function="internal">
        <lane id=":113821595_1_0" index="0" speed="13.89" length="0.36" width="4.00" shape="486.64,1149.54 487.00,1149.52"/>
    </edge>
    <edge id=":113821610_0" function="internal">
        <lane id=":113821610_0_0" index="0" speed="13.89" length="6.40" width="4.00" shape="463.12,934.40 463.36,932.68 464.12,931.46 465.38,930.75 467.15,930.54"/>
    </edge>
    <edge id=":113821610_1" function="internal">
        <lane id=":113821610_1_0" index="0" speed="13.89" length="0.10" width="4.00" shape="467.15,930.50 467.15,930.54"/>
    </edge>
    <edge id=":113850299_0" function="internal">
        <lane id=":113850299_0_0" index="0" speed="13.89" length="0.13" width="4.00" shape="1007.39,1138.80 1007.35,1138.92"/>
    </edge>
    <edge id=":113850299_1" function="internal">
        <lane id=":113850299_1_0" index="0" speed="13.89" length="6.72" width="4.00" shape="1001.66,1141.04 1002.71,1139.60 1004.01,1138.77 1005.56,1138.55 1007.35,1138.92"/>
    </edge>
    <edge id=":113850311_0" function="internal">
        <lane id=":113850311_0_0" index="0" speed="13.89" length="6.15" width="4.00" shape="713.95,1039.82 712.25,1039.60 710.95,1040.00 710.05,1041.02 709.56,1042.66"/>
    </edge>
    <edge id=":113850311_1" function="internal">
        <lane id=":113850311_1_0" index="0" speed="13.89" length="0.53" width="4.00" shape="713.95,1039.82 714.09,1039.31"/>
    </edge>
    <edge id=":113874364_0" function="internal">
        <lane id=":113874364_0_0" index="0" speed="13.89" length="4.71" width="4.00" shape="554.95,1227.60 554.61,1225.90 554.13,1224.71 553.50,1224.05 552.74,1223.90"/>
    </edge>
    <edge id=":113874364_1" function="internal">
        <lane id=":113874364_1_0" index="0" speed="13.89" length="0.26" width="3.50" shape="554.95,1227.60 554.68,1227.64"/>
    </edge>
    <edge id=":113874364_2" function="internal">
        <lane id=":113874364_2_0" index="0" speed="13.89" length="2.63" width="3.50" shape="554.95,1227.60 555.66,1226.14 556.49,1225.58"/>
    </edge>
    <edge id=":113874364_8" function="internal">
        <lane id=":113874364_8_0" index="0" speed="13.89" length="2.63" width="3.50" shape="556.49,1225.58 557.44,1225.90 558.51,1227.12"/>
    </edge>
    <edge id=":113874364_3" function="internal">
        <lane id=":113874364_3_0" index="0" speed="13.89" length="0.25" width="3.50" shape="565.41,1226.18 565.65,1226.14"/>
        <lane id=":113874364_3_1" index="1" speed="13.89" length="0.25" width="3.50" shape="561.83,1226.66 562.08,1226.63"/>
        <lane id=":113874364_3_2" index="2" speed="13.89" length="0.25" width="3.50" shape="558.26,1227.15 558.51,1227.12"/>
    </edge>
    <edge id=":113874364_6" function="internal">
        <lane id=":113874364_6_0" index="0" speed="13.89" length="4.00" width="4.00" shape="558.26,1227.15 557.81,1225.46 556.73,1224.36 556.06,1224.15"/>
    </edge>
    <edge id=":113874364_7" function="internal">
        <lane id=":113874364_7_0" index="0" speed="13.89" length="2.63" width="3.50" shape="558.26,1227.15 557.55,1228.61 556.71,1229.18"/>
    </edge>
    <edge id=":113874364_9" function="internal">
        <lane id=":113874364_9_0" index="0" speed="13.89" length="3.37" width="4.00" shape="556.06,1224.15 555.04,1223.84 552.74,1223.90"/>
    </edge>
    <edge id=":113874364_10" function="internal">
        <lane id=":113874364_10_0" index="0" speed="13.89" length="2.63" width="3.50" shape="556.71,1229.18 555.76,1228.86 554.68,1227.64"/>
    </edge>
    <edge id=":113874369_0" function="internal">
        <lane id=":113874369_0_0" index="0" speed="13.89" length="4.55" width="4.00" shape="535.14,931.64 534.98,929.97 534.62,928.79 534.07,928.11 533.33,927.92"/>
    </edge>
    <edge id=":113874369_1" function="internal">
        <lane id=":113874369_1_0" index="0" speed="13.89" length="8.32" width="3.50" shape="535.14,931.64 535.11,923.32"/>
    </edge>
    <edge id=":113874369_2" function="internal">
        <lane id=":113874369_2_0" index="0" speed="13.89" length="2.74" width="3.50" shape="535.14,931.64 535.99,930.26 536.88,929.78 536.98,929.83"/>
    </edge>
    <edge id=":113874369_8" function="internal">
        <lane id=":113874369_8_0" index="0" speed="13.89" length="2.51" width="3.50" shape="536.98,929.83 537.79,930.20 538.74,931.52"/>
    </edge>
    <edge id=":113874369_3" function="internal">
        <lane id=":113874369_3_0" index="0" speed="13.89" length="7.88" width="3.50" shape="545.91,923.61 545.93,931.27"/>
        <lane id=":113874369_3_1" index="1" speed="13.89" length="7.88" width="3.50" shape="542.31,923.52 542.34,931.40"/>
        <lane id=":113874369_3_2" index="2" speed="13.89" length="7.88" width="3.50" shape="538.71,923.42 538.74,931.52"/>
    </edge>
    <edge id=":113874369_6" function="internal">
        <lane id=":113874369_6_0" index="0" speed="13.89" length="4.08" width="4.00" shape="538.71,923.42 538.33,925.26 537.31,926.62 536.87,926.86"/>
    </edge>
    <edge id=":113874369_7" function="internal">
        <lane id=":113874369_7_0" index="0" speed="13.89" length="2.63" width="3.50" shape="538.71,923.42 537.77,924.75 536.86,925.17"/>
    </edge>
    <edge id=":113874369_9" function="internal">
        <lane id=":113874369_9_0" index="0" speed="13.89" length="3.74" width="4.00" shape="536.87,926.86 535.64,927.51 533.33,927.92"/>
    </edge>
    <edge id=":113874369_10" function="internal">
        <lane id=":113874369_10_0" index="0" speed="13.89" length="2.63" width="3.50" shape="536.86,925.17 535.97,924.70 535.11,923.32"/>
    </edge>
    <edge id=":113874375_0" function="internal">
        <lane id=":113874375_0_0" index="0" speed="13.89" length="7.34" width="3.50" shape="550.77,824.23 550.07,824.39 549.54,825.04 549.17,826.16 548.96,827.77"/>
        <lane id=":113874375_0_1" index="1" speed="13.89" length="7.34" width="3.50" shape="550.77,824.23 548.50,824.25 546.85,824.80 545.80,825.90 545.37,827.52"/>
        <lane id=":113874375_0_2" index="2" speed="13.89" length="7.34" width="3.50" shape="550.77,824.23 546.93,824.10 544.16,824.57 542.44,825.63 541.78,827.28"/>
    </edge>
    <edge id=":113874375_3" function="internal">
        <lane id=":113874375_3_0" index="0" speed="13.89" length="3.15" width="3.50" shape="538.18,827.04 539.17,825.75 540.10,825.36 540.55,825.63"/>
    </edge>
    <edge id=":113874375_4" function="internal">
        <lane id=":113874375_4_0" index="0" speed="13.89" length="2.11" width="3.50" shape="540.55,825.63 540.97,825.87 541.78,827.28"/>
    </edge>
    <edge id=":113874380_0" function="internal">
        <lane id=":113874380_0_0" index="0" speed="13.89" length="7.93" width="3.50" shape="554.47,772.96 553.56,780.70"/>
        <lane id=":113874380_0_1" index="1" speed="13.89" length="7.93" width="3.50" shape="550.90,772.47 549.97,780.35"/>
        <lane id=":113874380_0_2" index="2" speed="13.89" length="7.93" width="3.50" shape="547.33,771.99 546.39,779.99"/>
    </edge>
    <edge id=":113874380_3" function="internal">
        <lane id=":113874380_3_0" index="0" speed="13.89" length="4.04" width="4.00" shape="547.33,771.99 546.76,773.75 545.60,774.94 545.10,775.12"/>
    </edge>
    <edge id=":113874380_4" function="internal">
        <lane id=":113874380_4_0" index="0" speed="13.89" length="2.63" width="3.50" shape="547.33,771.99 546.26,773.21 545.31,773.53"/>
    </edge>
    <edge id=":113874380_8" function="internal">
        <lane id=":113874380_8_0" index="0" speed="13.89" length="3.67" width="4.00" shape="545.10,775.12 543.85,775.56 541.51,775.61"/>
    </edge>
    <edge id=":113874380_9" function="internal">
        <lane id=":113874380_9_0" index="0" speed="13.89" length="2.63" width="3.50" shape="545.31,773.53 544.48,772.97 543.77,771.51"/>
    </edge>
    <edge id=":113874380_5" function="internal">
        <lane id=":113874380_5_0" index="0" speed="13.89" length="4.63" width="4.00" shape="542.81,779.63 542.87,777.93 542.68,776.69 542.22,775.92 541.51,775.61"/>
    </edge>
    <edge id=":113874380_6" function="internal">
        <lane id=":113874380_6_0" index="0" speed="13.89" length="8.18" width="3.50" shape="542.81,779.63 543.77,771.51"/>
    </edge>
    <edge id=":113874380_7" function="internal">
        <lane id=":113874380_7_0" index="0" speed="13.89" length="2.63" width="3.50" shape="542.81,779.63 543.84,778.38 544.78,778.02"/>
    </edge>
    <edge id=":113874380_10" function="internal">
        <lane id=":113874380_10_0" index="0" speed="13.89" length="2.63" width="3.50" shape="544.78,778.02 545.63,778.56 546.39,779.99"/>
    </edge>
    <edge id=":113874389_0" function="internal">
        <lane id=":113874389_0_0" index="0" speed="13.89" length="11.02" width="3.50" shape="576.44,652.37 573.48,662.56"/>
        <lane id=":113874389_0_1" index="1" speed="13.89" length="11.02" width="3.50" shape="572.99,651.35 569.93,661.96"/>
        <lane id=":113874389_0_2" index="2" speed="13.89" length="11.02" width="3.50" shape="569.54,650.32 566.39,661.29"/>
    </edge>
    <edge id=":113874389_3" function="internal">
        <lane id=":113874389_3_0" index="0" speed="13.89" length="9.41" width="4.00" shape="569.54,650.32 568.60,654.08 568.22,657.25 568.36,659.59"/>
    </edge>
    <edge id=":113874389_4" function="internal">
        <lane id=":113874389_4_0" index="0" speed="13.89" length="2.63" width="3.50" shape="569.54,650.32 568.29,651.36 567.30,651.54"/>
    </edge>
    <edge id=":113874389_8" function="internal">
        <lane id=":113874389_8_0" index="0" speed="13.89" length="2.34" width="4.00" shape="568.36,659.59 568.38,659.82 569.08,661.81"/>
    </edge>
    <edge id=":113874389_9" function="internal">
        <lane id=":113874389_9_0" index="0" speed="13.89" length="2.63" width="3.50" shape="567.30,651.54 566.56,650.85 566.08,649.30"/>
    </edge>
    <edge id=":113874389_5" function="internal">
        <lane id=":113874389_5_0" index="0" speed="13.89" length="6.34" width="4.00" shape="562.90,660.38 569.08,661.81"/>
    </edge>
    <edge id=":113874389_6" function="internal">
        <lane id=":113874389_6_0" index="0" speed="13.89" length="11.53" width="3.50" shape="562.90,660.38 566.08,649.30"/>
    </edge>
    <edge id=":113874389_7" function="internal">
        <lane id=":113874389_7_0" index="0" speed="13.89" length="2.74" width="3.50" shape="562.90,660.38 564.12,659.30 565.10,659.09 565.18,659.16"/>
    </edge>
    <edge id=":113874389_10" function="internal">
        <lane id=":113874389_10_0" index="0" speed="13.89" length="2.53" width="3.50" shape="565.18,659.16 565.86,659.75 566.39,661.29"/>
    </edge>
    <edge id=":113915731_0" function="internal">
        <lane id=":113915731_0_0" index="0" speed="13.89" length="4.17" width="4.00" shape="1069.16,650.14 1067.87,649.57 1066.88,649.48 1066.21,649.89 1065.83,650.80"/>
    </edge>
    <edge id=":113915731_1" function="internal">
        <lane id=":113915731_1_0" index="0" speed="13.89" length="0.89" width="3.50" shape="1069.16,650.14 1069.60,649.37"/>
    </edge>
    <edge id=":113915731_2" function="internal">
        <lane id=":113915731_2_0" index="0" speed="13.89" length="2.63" width="3.50" shape="1069.16,650.14 1068.43,648.69 1068.49,647.69"/>
    </edge>
    <edge id=":113915731_6" function="internal">
        <lane id=":113915731_6_0" index="0" speed="13.89" length="2.63" width="3.50" shape="1068.49,647.69 1069.32,647.13 1070.94,647.02"/>
    </edge>
    <edge id=":113915731_3" function="internal">
        <lane id=":113915731_3_0" index="0" speed="13.89" length="0.99" width="3.50" shape="1071.43,646.16 1070.94,647.02"/>
    </edge>
    <edge id=":113915731_4" function="internal">
        <lane id=":113915731_4_0" index="0" speed="13.89" length="4.84" width="4.00" shape="1071.43,646.16 1069.40,645.95 1067.80,646.66 1067.17,647.50"/>
    </edge>
    <edge id=":113915731_5" function="internal">
        <lane id=":113915731_5_0" index="0" speed="13.89" length="2.70" width="3.50" shape="1071.43,646.16 1072.18,647.65 1072.12,648.68"/>
    </edge>
    <edge id=":113915731_7" function="internal">
        <lane id=":113915731_7_0" index="0" speed="13.89" length="3.60" width="4.00" shape="1067.17,647.50 1066.61,648.27 1065.83,650.80"/>
    </edge>
    <edge id=":113915731_8" function="internal">
        <lane id=":113915731_8_0" index="0" speed="13.89" length="2.70" width="3.50" shape="1072.12,648.68 1071.26,649.25 1069.60,649.37"/>
    </edge>
    <edge id=":113915746_0" function="internal">
        <lane id=":113915746_0_0" index="0" speed="13.89" length="4.96" width="4.00" shape="934.19,620.24 932.49,620.19 931.24,620.47 930.46,621.07 930.13,622.00"/>
    </edge>
    <edge id=":113915746_1" function="internal">
        <lane id=":113915746_1_0" index="0" speed="13.89" length="0.10" width="3.50" shape="934.19,620.24 934.19,620.30"/>
    </edge>
    <edge id=":113915746_2" function="internal">
        <lane id=":113915746_2_0" index="0" speed="13.89" length="2.63" width="3.50" shape="934.19,620.24 932.95,619.20 932.60,618.25"/>
    </edge>
    <edge id=":113915746_6" function="internal">
        <lane id=":113915746_6_0" index="0" speed="13.89" length="2.63" width="3.50" shape="932.60,618.25 933.15,617.41 934.59,616.66"/>
    </edge>
    <edge id=":113915746_3" function="internal">
        <lane id=":113915746_3_0" index="0" speed="13.89" length="0.10" width="3.50" shape="934.58,616.72 934.59,616.66"/>
    </edge>
    <edge id=":113915746_4" function="internal">
        <lane id=":113915746_4_0" index="0" speed="13.89" length="4.12" width="4.00" shape="934.58,616.72 932.82,616.86 931.49,617.79 931.15,618.44"/>
    </edge>
    <edge id=":113915746_5" function="internal">
        <lane id=":113915746_5_0" index="0" speed="13.89" length="2.63" width="3.50" shape="934.58,616.72 935.82,617.76 936.17,618.71"/>
    </edge>
    <edge id=":113915746_7" function="internal">
        <lane id=":113915746_7_0" index="0" speed="13.89" length="3.74" width="4.00" shape="931.15,618.44 930.59,619.50 930.13,622.00"/>
    </edge>
    <edge id=":113915746_8" function="internal">
        <lane id=":113915746_8_0" index="0" speed="13.89" length="2.63" width="3.50" shape="936.17,618.71 935.63,619.55 934.19,620.30"/>
    </edge>
    <edge id=":113926354_0" function="internal">
        <lane id=":113926354_0_0" index="0" speed="13.89" length="6.67" width="4.00" shape="1005.92,1199.77 1005.44,1198.04 1004.54,1196.79 1003.20,1196.01 1001.44,1195.71"/>
    </edge>
    <edge id=":113926354_1" function="internal">
        <lane id=":113926354_1_0" index="0" speed="13.89" length="0.10" width="4.00" shape="1005.92,1199.77 1005.91,1199.77"/>
    </edge>
    <edge id=":113926367_0" function="internal">
        <lane id=":113926367_0_0" index="0" speed="13.89" length="5.93" width="4.00" shape="859.81,1194.71 858.22,1195.26 857.32,1196.17 857.10,1197.43 857.56,1199.05"/>
    </edge>
    <edge id=":113926367_1" function="internal">
        <lane id=":113926367_1_0" index="0" speed="13.89" length="8.00" width="4.00" shape="859.81,1194.71 851.91,1195.96"/>
    </edge>
    <edge id=":113926379_0" function="internal">
        <lane id=":113926379_0_0" index="0" speed="13.89" length="3.08" width="4.00" shape="792.63,1254.30 792.60,1255.13 792.31,1255.77 791.76,1256.22 790.96,1256.47"/>
    </edge>
    <edge id=":113927525_0" function="internal">
        <lane id=":113927525_0_0" index="0" speed="13.89" length="6.35" width="4.00" shape="913.81,854.49 912.07,854.55 910.77,855.16 909.92,856.31 909.51,858.00"/>
    </edge>
    <edge id=":113927525_1" function="internal">
        <lane id=":113927525_1_0" index="0" speed="13.89" length="8.00" width="4.00" shape="913.81,854.49 905.84,853.88"/>
    </edge>
    <edge id=":113927525_2" function="internal">
        <lane id=":113927525_2_0" index="0" speed="13.89" length="8.00" width="4.00" shape="910.22,850.03 909.51,858.00"/>
    </edge>
    <edge id=":113927525_3" function="internal">
        <lane id=":113927525_3_0" index="0" speed="13.89" length="2.25" width="4.00" shape="910.22,850.03 909.82,851.79 909.56,852.16"/>
    </edge>
    <edge id=":113927525_4" function="internal">
        <lane id=":113927525_4_0" index="0" speed="13.89" length="4.34" width="4.00" shape="909.56,852.16 908.96,853.01 907.63,853.71 905.84,853.88"/>
    </edge>
    <edge id=":113927527_0" function="internal">
        <lane id=":113927527_0_0" index="0" speed="13.89" length="8.00" width="4.00" shape="907.22,882.71 906.99,885.07 906.79,886.69 906.49,888.29 905.98,890.61"/>
    </edge>
    <edge id=":113927527_1" function="internal">
        <lane id=":113927527_1_0" index="0" speed="13.89" length="7.17" width="4.00" shape="907.22,882.71 906.82,884.54 905.98,886.03 904.71,887.17 903.00,887.95"/>
    </edge>
    <edge id=":113996062_0" function="internal">
        <lane id=":113996062_0_0" index="0" speed="13.89" length="6.45" width="4.00" shape="858.12,851.63 856.37,851.79 855.06,852.47 854.21,853.66 853.80,855.37"/>
    </edge>
    <edge id=":113996062_1" function="internal">
        <lane id=":113996062_1_0" index="0" speed="13.89" length="0.10" width="4.00" shape="858.12,851.63 858.12,851.70"/>
    </edge>
    <edge id=":113996071_0" function="internal">
        <lane id=":113996071_0_0" index="0" speed="13.89" length="8.00" width="4.00" shape="683.66,837.23 675.68,836.65"/>
    </edge>
    <edge id=":113996071_1" function="internal">
        <lane id=":113996071_1_0" index="0" speed="13.89" length="2.13" width="4.00" shape="680.15,832.92 679.71,834.66 679.51,834.93"/>
    </edge>
    <edge id=":113996071_2" function="internal">
        <lane id=":113996071_2_0" index="0" speed="13.89" length="4.46" width="4.00" shape="679.51,834.93 678.81,835.87 677.47,836.53 675.68,836.65"/>
    </edge>
    <edge id=":114001735_0" function="internal">
        <lane id=":114001735_0_0" index="0" speed="13.89" length="0.30" width="4.00" shape="722.71,1281.85 722.71,1282.14"/>
    </edge>
    <edge id=":114001741_0" function="internal">
        <lane id=":114001741_0_0" index="0" speed="13.89" length="5.79" width="4.00" shape="712.49,1210.23 712.26,1208.54 712.66,1207.39 713.69,1206.77 715.35,1206.68"/>
    </edge>
    <edge id=":114001741_1" function="internal">
        <lane id=":114001741_1_0" index="0" speed="13.89" length="0.24" width="4.00" shape="712.49,1210.23 712.25,1210.28"/>
    </edge>
    <edge id=":114109801_0" function="internal">
        <lane id=":114109801_0_0" index="0" speed="13.89" length="2.77" width="4.00" shape="791.19,387.67 791.65,384.94"/>
    </edge>
    <edge id=":114109801_1" function="internal">
        <lane id=":114109801_1_0" index="0" speed="13.89" length="5.01" width="4.00" shape="786.36,389.48 787.19,387.77 788.35,386.44 789.49,385.72"/>
    </edge>
    <edge id=":114109801_2" function="internal">
        <lane id=":114109801_2_0" index="0" speed="13.89" length="2.31" width="4.00" shape="789.49,385.72 789.84,385.50 791.65,384.94"/>
    </edge>
    <edge id=":28099345_0" function="internal">
        <lane id=":28099345_0_0" index="0" speed="13.89" length="3.83" width="4.00" shape="740.43,354.56 739.65,355.73 739.30,356.67 739.36,357.40 739.83,357.90"/>
    </edge>
    <edge id=":28099345_1" function="internal">
        <lane id=":28099345_1_0" index="0" speed="13.89" length="7.97" width="3.50" shape="740.43,354.56 739.11,356.29 738.23,357.50 737.43,358.76 736.30,360.63"/>
        <lane id=":28099345_1_1" index="1" speed="13.89" length="7.97" width="3.50" shape="737.57,352.37 736.18,354.20 735.25,355.48 734.40,356.80 733.21,358.78"/>
        <lane id=":28099345_1_2" index="2" speed="13.89" length="7.97" width="3.50" shape="734.72,350.18 733.24,352.10 732.27,353.45 731.38,354.85 730.12,356.93"/>
        <lane id=":28099345_1_3" index="3" speed="13.89" length="7.97" width="3.50" shape="731.86,347.99 730.31,350.01 729.29,351.43 728.35,352.89 727.03,355.08"/>
    </edge>
    <edge id=":295197229_0" function="internal">
        <lane id=":295197229_0_0" index="0" speed="13.89" length="0.24" width="4.00" shape="1014.00,1256.88 1014.24,1256.85"/>
    </edge>
    <edge id=":295197229_1" function="internal">
        <lane id=":295197229_1_0" index="0" speed="13.89" length="6.53" width="4.00" shape="1014.00,1256.88 1014.02,1255.09 1014.60,1253.73 1015.75,1252.81 1017.47,1252.32"/>
    </edge>
    <edge id=":295459942_0" function="internal">
        <lane id=":295459942_0_0" index="0" speed="13.89" length="6.31" width="4.00" shape="754.60,1214.26 754.79,1212.51 755.51,1211.31 756.75,1210.66 758.50,1210.57"/>
    </edge>
    <edge id=":295459942_1" function="internal">
        <lane id=":295459942_1_0" index="0" speed="13.89" length="0.10" width="4.00" shape="758.51,1210.56 758.50,1210.57"/>
    </edge>
    <edge id=":295459945_0" function="internal">
        <lane id=":295459945_0_0" index="0" speed="13.89" length="2.11" width="4.00" shape="761.78,1311.96 760.07,1311.66 759.69,1311.68"/>
    </edge>
    <edge id=":295459945_2" function="internal">
        <lane id=":295459945_2_0" index="0" speed="13.89" length="2.52" width="4.00" shape="759.69,1311.68 758.86,1311.73 758.15,1312.18 757.94,1313.00"/>
    </edge>
    <edge id=":295459945_1" function="internal">
        <lane id=":295459945_1_0" index="0" speed="13.89" length="5.64" width="4.00" shape="754.60,1308.69 756.03,1309.77 757.07,1310.85 757.70,1311.92 757.94,1313.00"/>
    </edge>
    <edge id=":295460070_0" function="internal">
        <lane id=":295460070_0_0" index="0" speed="13.89" length="0.10" width="4.00" shape="740.41,1208.94 740.41,1208.94"/>
    </edge>
    <edge id=":295460070_1" function="internal">
        <lane id=":295460070_1_0" index="0" speed="13.89" length="6.20" width="4.00" shape="740.41,1208.94 738.70,1209.03 737.51,1209.68 736.83,1210.88 736.67,1212.62"/>
    </edge>
    <edge id=":295460248_0" function="internal">
        <lane id=":295460248_0_0" index="0" speed="13.89" length="6.91" width="4.00" shape="777.36,1259.57 775.78,1260.49 774.70,1261.71 774.12,1263.23 774.04,1265.05"/>
    </edge>
    <edge id=":295460248_1" function="internal">
        <lane id=":295460248_1_0" index="0" speed="13.89" length="0.10" width="4.00" shape="774.05,1265.05 774.04,1265.05"/>
    </edge>
    <edge id=":295461450_0" function="internal">
        <lane id=":295461450_0_0" index="0" speed="13.89" length="6.40" width="4.00" shape="705.67,1075.74 705.81,1077.48 706.48,1078.77 707.66,1079.61 709.37,1079.99"/>
    </edge>
    <edge id=":295461450_1" function="internal">
        <lane id=":295461450_1_0" index="0" speed="13.89" length="8.00" width="4.00" shape="705.67,1075.74 705.23,1083.73"/>
    </edge>
    <edge id=":295462726_0" function="internal">
        <lane id=":295462726_0_0" index="0" speed="13.89" length="7.99" width="4.00" shape="1027.07,877.83 1019.32,875.86"/>
    </edge>
    <edge id=":295462726_1" function="internal">
        <lane id=":295462726_1_0" index="0" speed="13.89" length="2.09" width="4.00" shape="1024.00,872.87 1023.43,874.55 1023.22,874.78"/>
    </edge>
    <edge id=":295462726_2" function="internal">
        <lane id=":295462726_2_0" index="0" speed="13.89" length="4.33" width="4.00" shape="1023.22,874.78 1022.46,875.61 1021.09,876.04 1019.32,875.86"/>
    </edge>
    <edge id=":295462889_0" function="internal">
        <lane id=":295462889_0_0" index="0" speed="13.89" length="6.90" width="4.00" shape="1063.84,661.36 1063.74,663.18 1064.17,664.75 1065.13,666.06 1066.61,667.12"/>
    </edge>
    <edge id=":295462889_1" function="internal">
        <lane id=":295462889_1_0" index="0" speed="13.89" length="8.00" width="4.00" shape="1063.84,661.36 1062.36,669.22"/>
    </edge>
    <edge id=":295462889_2" function="internal">
        <lane id=":295462889_2_0" index="0" speed="13.89" length="7.99" width="4.00" shape="1059.17,664.31 1061.47,664.88 1063.03,665.36 1064.51,666.02 1066.61,667.12"/>
    </edge>
    <edge id=":295462889_3" function="internal">
        <lane id=":295462889_3_0" index="0" speed="13.89" length="2.13" width="4.00" shape="1059.17,664.31 1060.85,664.97 1061.09,665.20"/>
    </edge>
    <edge id=":295462889_4" function="internal">
        <lane id=":295462889_4_0" index="0" speed="13.89" length="4.48" width="4.00" shape="1061.09,665.20 1061.94,666.01 1062.44,667.42 1062.36,669.22"/>
    </edge>
    <edge id=":295462978_0" function="internal">
        <lane id=":295462978_0_0" index="0" speed="13.89" length="6.53" width="4.00" shape="1060.64,678.38 1060.56,680.15 1061.05,681.57 1062.10,682.63 1063.71,683.35"/>
    </edge>
    <edge id=":295462978_1" function="internal">
        <lane id=":295462978_1_0" index="0" speed="13.89" length="8.01" width="4.00" shape="1060.64,678.38 1059.16,686.25"/>
    </edge>
    <edge id=":295462978_2" function="internal">
        <lane id=":295462978_2_0" index="0" speed="13.89" length="7.99" width="4.00" shape="1056.02,681.17 1063.71,683.35"/>
    </edge>
    <edge id=":295462978_3" function="internal">
        <lane id=":295462978_3_0" index="0" speed="13.89" length="2.13" width="4.00" shape="1056.02,681.17 1057.68,681.90 1057.90,682.13"/>
    </edge>
    <edge id=":295462978_4" function="internal">
        <lane id=":295462978_4_0" index="0" speed="13.89" length="4.55" width="4.00" shape="1057.90,682.13 1058.75,682.99 1059.25,684.44 1059.16,686.25"/>
    </edge>
    <edge id=":295463020_0" function="internal">
        <lane id=":295463020_0_0" index="0" speed="13.89" length="6.54" width="4.00" shape="1057.28,696.19 1057.20,697.96 1057.68,699.38 1058.73,700.45 1060.35,701.17"/>
    </edge>
    <edge id=":295463020_1" function="internal">
        <lane id=":295463020_1_0" index="0" speed="13.89" length="8.00" width="4.00" shape="1057.28,696.19 1055.80,704.05"/>
    </edge>
    <edge id=":295463020_2" function="internal">
        <lane id=":295463020_2_0" index="0" speed="13.89" length="7.99" width="4.00" shape="1052.67,698.95 1060.35,701.17"/>
    </edge>
    <edge id=":295463020_3" function="internal">
        <lane id=":295463020_3_0" index="0" speed="13.89" length="2.13" width="4.00" shape="1052.67,698.95 1054.32,699.69 1054.55,699.92"/>
    </edge>
    <edge id=":295463020_4" function="internal">
        <lane id=":295463020_4_0" index="0" speed="13.89" length="4.56" width="4.00" shape="1054.55,699.92 1055.40,700.79 1055.89,702.24 1055.80,704.05"/>
    </edge>
    <edge id=":295463094_0" function="internal">
        <lane id=":295463094_0_0" index="0" speed="13.89" length="6.52" width="4.00" shape="1053.86,714.32 1053.78,716.08 1054.27,717.49 1055.32,718.55 1056.95,719.25"/>
    </edge>
    <edge id=":295463094_1" function="internal">
        <lane id=":295463094_1_0" index="0" speed="13.89" length="8.00" width="4.00" shape="1053.86,714.32 1052.38,722.18"/>
    </edge>
    <edge id=":295463094_2" function="internal">
        <lane id=":295463094_2_0" index="0" speed="13.89" length="8.00" width="4.00" shape="1049.24,717.12 1056.95,719.25"/>
    </edge>
    <edge id=":295463094_3" function="internal">
        <lane id=":295463094_3_0" index="0" speed="13.89" length="2.13" width="4.00" shape="1049.24,717.12 1050.89,717.85 1051.12,718.07"/>
    </edge>
    <edge id=":295463094_4" function="internal">
        <lane id=":295463094_4_0" index="0" speed="13.89" length="4.54" width="4.00" shape="1051.12,718.07 1051.97,718.93 1052.47,720.37 1052.38,722.18"/>
    </edge>
    <edge id=":295463171_0" function="internal">
        <lane id=":295463171_0_0" index="0" speed="13.89" length="6.50" width="4.00" shape="1050.47,732.34 1050.39,734.11 1050.88,735.51 1051.93,736.56 1053.56,737.25"/>
    </edge>