<?xml version='1.0' encoding='UTF-8'?>
<edges>
  <edge id="12505400" from="Custom76" to="Custom77" numLanes="1" width="4.0" shape="-340.599942,-155.547884 -319.724152,-155.802866 -319.468426,-155.822436 -311.493273,-156.950692 -289.044037,-155.274954 "/>
  <edge id="12508929" from="113915746" to="113927525" numLanes="1" width="4.0" shape="163.086136,-119.722188 158.050626,-59.704962 156.313447,-42.148765 153.334844,-12.046547 153.332208,-12.017798 143.177691,108.306313 "/>
  <edge id="12509470" from="113874380" to="Custom78" numLanes="1" width="4.0" shape="-223.315107,32.015581 -229.411050,31.473298 -229.469713,31.468948 -284.893204,28.177852 -284.964481,28.174894 -298.029895,27.865966 -341.478539,25.439159 -341.561751,25.436248 -419.101392,24.338056 -448.146034,23.927094 -533.936533,21.926773 -533.947390,21.926550 -619.960481,20.388258 -620.010674,20.387990 -640.599923,20.536542 -669.376079,20.743623 -728.479675,21.186514 -764.968616,20.573676 "/>
  <edge id="12517999" from="114001735" to="Custom79" numLanes="1" width="4.0" shape="-44.343978,540.397843 -44.760224,560.110531 -44.758259,560.250934 -44.051665,574.627306 -44.024939,574.869269 -43.969015,575.106193 -41.606774,582.945044 -41.530928,583.153938 -41.432374,583.353128 -41.312329,583.540153 -37.203283,589.220764 -37.201804,589.222806 -34.367784,593.130355 -34.240479,593.288353 -34.097821,593.432638 -33.941278,593.561727 -33.772462,593.674290 -33.593109,593.769169 -28.669500,596.062121 -28.514550,596.126517 -28.354748,596.177698 -18.653606,598.841592 -18.438415,598.888116 -18.219413,598.910706 -1.562716,599.706098 -1.296010,599.701024 23.074199,597.605880 23.249186,597.583021 68.514646,589.625149 "/>
  <edge id="12518691" from="113821595" to="Custom80" numLanes="1" width="4.0" shape="-282.793464,402.745034 -344.994335,414.244256 "/>
  <edge id="19801909" from="Custom81" to="Custom82" numLanes="1" width="4.0" shape="477.075622,-479.942074 434.417038,-500.394498 434.161587,-500.496023 385.323283,-516.114256 385.126762,-516.166256 384.925978,-516.198038 367.906417,-518.011394 367.709379,-518.022595 367.512198,-518.014322 367.316791,-517.986655 367.125063,-517.939865 366.938880,-517.874406 366.760054,-517.790916 366.590328,-517.690208 366.431354,-517.573262 366.284680,-517.441218 356.042766,-507.262281 355.893319,-507.096154 332.202755,-477.601351 297.701989,-440.040946 297.615836,-439.940695 273.883386,-410.403730 273.833037,-410.338350 258.602135,-389.692549 "/>
  <edge id="26939049" from="295197229" to="Custom83" numLanes="1" width="4.0" shape="252.751742,512.794156 283.937696,508.515696 "/>
  <edge id="26962799" from="295460070" to="295459945" numLanes="1" width="4.0" shape="-30.386399,471.166583 -26.630491,551.702536 -26.614837,551.875787 -26.584188,552.047023 -26.538775,552.214949 -24.054848,560.033256 -23.987218,560.215060 -23.902293,560.389457 -23.800874,560.554808 -23.683913,560.709556 -23.552512,560.852245 -23.407905,560.981534 -23.251454,561.096206 -11.528485,568.843805 "/>
  <edge id="26962817" from="113926379" to="295460248" numLanes="1" width="4.0" shape="27.436985,512.602979 15.501049,514.535129 15.269915,514.586749 15.046503,514.665328 11.567023,516.125987 "/>
  <edge id="26962903" from="295461450" to="Custom84" numLanes="1" width="4.0" shape="-55.791016,340.481727 15.261532,345.984770 "/>
  <edge id="26963488" from="295468676" to="295468769" numLanes="1" width="4.0" shape="-1.014417,-291.757039 9.507333,-288.824169 9.720558,-288.777108 27.002927,-285.941776 27.206530,-285.919006 27.411395,-285.917185 27.615371,-285.936332 51.552573,-289.427670 "/>
  <edge id="27159238" from="297981956" to="Custom85" numLanes="1" width="4.0" shape="273.306700,-217.100500 316.975273,-212.063641 "/>
  <edge id="27160030" from="7271009740" to="7271009745" numLanes="1" width="4.0" shape="-61.662819,-118.500596 -58.463363,-117.118017 -44.782119,-103.995868 -35.364526,-90.534410 -29.720554,-75.637777 -27.124125,-63.983099 -26.956955,-53.137504 -32.024265,-35.233154 -32.080916,-34.963086 -34.158095,-19.976529 -34.175924,-19.768553 -34.171979,-19.559851 -32.330746,6.289797 -33.294235,16.640324 -37.683707,24.193078 -45.368062,36.606840 -53.097248,43.686621 -62.779449,52.307716 -79.461556,61.272062 "/>
  <edge id="27160092" from="113927527" to="297990169" numLanes="1" width="4.0" shape="137.375503,144.444787 119.158933,150.251083 118.978101,150.318494 118.804609,150.403019 118.640071,150.503872 118.486019,150.620114 118.343888,150.750663 118.215001,150.894303 118.100558,151.049696 118.001625,151.215396 117.919123,151.389860 99.164588,196.570284 99.140361,196.631472 87.194702,228.314814 87.141080,228.477927 79.786167,254.577932 79.728096,254.860935 75.601451,286.400957 75.584758,286.631492 75.594775,286.862413 78.161428,312.145966 78.192544,312.348524 78.244225,312.546835 78.315929,312.738816 79.292966,314.994777 79.385307,315.180847 79.496449,315.356336 79.625194,315.519351 79.770152,315.668132 79.929761,315.801076 80.102298,315.916748 80.285902,316.013901 80.478592,316.091485 82.803729,316.890046 83.000707,316.946596 83.202437,316.982692 83.406802,316.997955 96.898421,317.312220 "/>
  <edge id="27160303" from="297992456" to="297992590" numLanes="1" width="4.0" shape="-32.235751,-238.474882 -38.304406,-240.531198 -82.561770,-262.306758 "/>
  <edge id="27199091" from="298477390" to="298478034" numLanes="1" width="4.0" shape="-239.425065,95.839136 -233.551183,98.655783 -233.395122,98.722626 -233.233955,98.775993 -233.068842,98.815499 -229.716246,99.468595 "/>
  <edge id="27270919" from="299343846" to="299343847" numLanes="1" width="4.0" shape="-11.482027,-215.646536 54.716118,-206.835855 "/>
  <edge id="27272313" from="299360331" to="Custom86" numLanes="1" width="4.0" shape="-255.664947,-197.161885 -212.447267,-233.966200 "/>
  <edge id="27592206" from="302979770" to="Custom87" numLanes="1" width="4.0" shape="242.609950,501.599273 183.390892,512.083737 "/>
  <edge id="28112421" from="308799599" to="Custom88" numLanes="1" width="4.0" shape="-285.815991,-61.345592 -285.822348,-115.148850 "/>
  <edge id="28112432" from="308799620" to="Custom89" numLanes="1" width="4.0" shape="-227.056647,71.538185 -232.248232,70.513403 -248.653259,65.520407 "/>
  <edge id="28152483" from="113926367" to="Custom90" numLanes="1" width="4.0" shape="90.683312,458.335170 93.807819,465.312963 99.460520,523.633008 74.421182,545.135331 44.488257,551.878535 "/>
  <edge id="144676786" from="Custom91" to="Custom92" numLanes="1" width="4.0" shape="301.994696,505.967842 331.289922,501.995109 "/>
  <edge id="567999473" from="113996062" to="5465779539" numLanes="1" width="4.0" shape="86.759636,113.629992 85.603258,125.993204 85.097451,127.197245 83.874923,127.656575 48.971960,129.576776 -63.253329,105.614045 -64.546306,104.907252 -65.023707,103.513181 -65.140907,100.587624 "/>
  <edge id="691852299" from="113821593" to="Custom93" numLanes="1" width="4.0" shape="-278.776949,486.587889 -356.260247,499.752269 "/>
  <edge id="724068283" from="113926354" to="113850299" numLanes="1" width="4.0" shape="241.905345,450.022856 237.523868,416.372753 236.808802,406.696370 237.614235,402.019965 238.456576,400.459059 "/>
  <edge id="724068284" from="295197229" to="302979770" numLanes="1" width="4.0" shape="249.731564,507.052334 249.611887,506.425372 "/>
  <edge id="724068285" from="302979770" to="113926354" numLanes="1" width="4.0" shape="248.353248,498.642786 242.947844,457.949427 "/>
  <edge id="724068286" from="Custom94" to="295197229" numLanes="1" width="4.0" shape="257.021241,560.136984 251.026834,515.057858 "/>
  <edge id="724068293" from="Custom95" to="113850299" numLanes="1" width="4.0" shape="491.857362,470.729762 472.223082,469.029327 442.622056,460.267971 392.262517,444.685954 307.795772,415.710996 307.748229,415.695349 243.012422,395.284476 "/>
  <edge id="724068294" from="113850311" to="299345208" numLanes="1" width="4.0" shape="-58.584485,294.624225 -151.502014,281.821699 -151.703010,281.804277 -151.904738,281.807193 -209.218809,285.532895 -209.255039,285.535581 -212.437942,285.800622 "/>
  <edge id="724068296" from="299345208" to="113874364" numLanes="3" width="3.5" shape="-222.451005,292.615764 -209.120218,477.635080 "/>
  <edge id="-724068296" to="299345208" from="113874364" numLanes="1" width="3.5" shape="-209.120218,477.635080 -222.451005,292.615764 "/>
  <edge id="749768787" from="7011181054" to="7011181055" numLanes="1" width="4.0" shape="-245.009057,489.722791 -241.274878,544.369606 "/>
  <edge id="749768788" from="7011181060" to="7011181062" numLanes="1" width="4.0" shape="-260.943231,504.484490 -269.570090,504.642259 "/>
  <edge id="749768790" from="7011181055" to="7011181059" numLanes="1" width="4.0" shape="-241.170762,546.308306 -241.120744,547.587582 -242.163337,550.506312 -245.410142,551.992871 -250.197930,551.218722 -252.503405,548.981812 -252.939209,546.743817 "/>
  <edge id="778744824" from="7271009711" to="7271009710" numLanes="1" width="4.0" shape="-190.633835,538.604249 -178.659307,537.134073 "/>
  <edge id="843660770" from="7869658104" to="297992590" numLanes="1" width="4.0" shape="-24.873780,-378.756804 -86.847321,-266.746367 "/>
  <edge id="351695510_1" from="3745003439" to="3575163113" numLanes="4" width="3.5" shape="-161.840901,-179.682872 -161.502107,-186.867015 -139.262777,-232.562394 -100.257001,-289.722261 -100.145895,-289.890218 -36.199632,-389.645415 "/>
  <edge id="351695510_2" from="3575163113" to="Custom96" numLanes="4" width="3.5" shape="-31.892120,-396.219020 45.875975,-512.342005 45.896893,-512.373423 86.031862,-573.007393 86.368010,-573.570951 101.544719,-601.960459 101.798330,-602.486540 102.007205,-603.031931 110.085310,-627.083944 110.228219,-627.566203 116.337614,-651.279556 116.454963,-651.823784 116.528692,-652.375616 119.049140,-679.386620 119.078511,-679.924352 119.066456,-680.462751 117.762666,-701.858276 117.729426,-702.235422 116.171775,-715.725696 "/>
  <edge id="12504771_1" from="Custom97" to="28099345" numLanes="4" width="3.5" shape="111.920346,-740.460923 118.276696,-700.151509 119.538686,-685.696642 116.996887,-656.046683 110.158746,-627.973420 104.071446,-605.144764 95.100285,-587.642499 78.813797,-558.562277 28.625139,-481.850009 12.759524,-459.824800 12.698326,-459.738473 -13.825477,-421.718236 -34.569297,-394.665144 "/>
  <edge id="12504771_2" from="28099345" to="3745003439" numLanes="4" width="3.5" shape="-39.508833,-387.399077 -50.249333,-369.478634 -96.231159,-298.856842 -96.398086,-298.587306 -136.550429,-230.348392 -136.931238,-229.602399 -148.898395,-202.227880 -151.073429,-197.258946 -156.681827,-184.446387 -161.478553,-179.525439 "/>
  <edge id="12508851_1" from="113926354" to="113926367" numLanes="1" width="4.0" shape="236.510780,452.109245 187.108351,450.384286 186.912007,450.387076 186.716883,450.409107 183.480109,450.936574 149.780684,447.959325 149.547706,447.952377 104.637251,449.232137 104.477702,449.243080 104.319537,449.266735 94.428453,451.153144 "/>
  <edge id="12508851_2" from="113926367" to="113926379" numLanes="1" width="4.0" shape="86.657641,452.376232 75.808584,453.725963 41.450960,456.707349 41.239038,456.737232 41.031523,456.789589 40.830791,456.863821 40.639141,456.959077 40.458766,457.074267 25.170867,468.031396 25.023638,468.147749 24.887962,468.277389 24.765033,468.419175 24.655935,468.571858 24.561627,468.734094 24.482939,468.904454 24.420565,469.081440 24.375053,469.263493 24.346804,469.449010 24.336067,469.636358 24.051968,497.173892 24.061411,497.389726 25.766127,514.772480 "/>
  <edge id="12511444_1" from="113874364" to="7011181054" numLanes="1" width="4.0" shape="-212.545152,480.321909 -217.041770,480.925315 -239.508487,483.202568 "/>
  <edge id="12511444_2" from="7011181054" to="113821593" numLanes="1" width="4.0" shape="-247.422239,483.894313 -270.655812,485.601832 "/>
  <edge id="724068308_2" from="113915746" to="113915750" numLanes="1" width="3.5" shape="161.445086,-124.042154 52.372671,-137.817101 -58.262308,-150.118833 "/>
  <edge id="-724068308_2" to="113915746" from="113915750" numLanes="1" width="3.5" shape="-58.262308,-150.118833 52.372671,-137.817101 161.445086,-124.042154 "/>
  <edge id="724068308_3" from="113915750" to="3745003439" numLanes="1" width="3.5" shape="-66.228421,-150.834755 -89.210028,-152.411996 -110.898698,-154.735869 -157.999244,-159.778099 "/>
  <edge id="-724068308_3" to="113915750" from="3745003439" numLanes="1" width="3.5" shape="-157.999244,-159.778099 -110.898698,-154.735869 -89.210028,-152.411996 -66.228421,-150.834755 "/>
  <edge id="12515718_1" from="113915750" to="7271009740" numLanes="1" width="4.0" shape="-64.552076,-146.734108 -66.214152,-126.070697 "/>
  <edge id="370814340_3" from="113874369" to="299345208" numLanes="3" width="3.5" shape="-228.058729,190.025723 -225.866148,254.402089 -225.853604,254.601999 -223.097567,284.710281 "/>
  <edge id="-370814340_3" to="113874369" from="299345208" numLanes="1" width="3.5" shape="-223.097567,284.710281 -225.853604,254.601999 -225.866148,254.402089 -228.058729,190.025723 "/>
  <edge id="12517214_1" from="113874369" to="113821610" numLanes="1" width="4.0" shape="-231.804083,184.322198 -233.225904,184.405567 -233.385606,184.421381 -254.374345,187.354148 -297.830835,186.895469 "/>
  <edge id="12517214_2" from="113821610" to="Custom98" numLanes="1" width="4.0" shape="-305.811368,186.774391 -308.834435,186.714568 -310.619589,186.331848 -319.673884,184.390692 -319.873409,184.358362 -320.075179,184.346336 -333.502105,184.225765 "/>
  <edge id="691852300_1" from="113821593" to="113821595" numLanes="1" width="4.0" shape="-272.691112,483.798977 -276.308415,407.884815 "/>
  <edge id="691852300_2" from="113821595" to="113821610" numLanes="1" width="4.0" shape="-277.054956,399.751119 -281.026050,370.610841 -281.065779,370.402554 -281.127336,370.199645 -281.210029,370.004393 -281.312929,369.818993 -281.434880,369.645529 -284.273610,366.031289 -285.334729,362.992258 -288.429258,328.141943 -297.011251,229.677067 -299.800310,197.649417 -299.828392,192.841391 "/>
  <edge id="12525193_1" from="113915750" to="299343485" numLanes="1" width="4.0" shape="-58.914289,-153.747307 -42.453299,-197.867055 "/>
  <edge id="12998914_1" from="113850311" to="295461450" numLanes="1" width="4.0" shape="-57.476347,300.803358 -60.637007,321.480835 -60.656517,321.665566 -61.386244,334.068259 "/>
  <edge id="12998914_2" from="295461450" to="114001741" numLanes="1" width="4.0" shape="-61.818241,342.076013 -63.553425,377.443820 -65.507512,417.384888 -65.506322,417.602224 -65.481556,417.818147 -60.322599,448.133709 -60.278363,448.332090 -56.630122,461.502314 "/>
  <edge id="12998914_3" from="114001741" to="114001735" numLanes="1" width="4.0" shape="-54.750902,469.153891 -46.966162,505.422442 -44.146824,533.269309 -44.343659,540.384760 "/>
  <edge id="26962789_1" from="114001741" to="295460070" numLanes="1" width="4.0" shape="-49.830181,467.173609 -32.738028,468.711298 "/>
  <edge id="26962789_3" from="295459945" to="295459942" numLanes="1" width="4.0" shape="-5.224612,565.315590 -8.349142,472.638521 "/>
  <edge id="26962789_4" from="295460248" to="295459945" numLanes="1" width="4.0" shape="7.001654,523.674469 11.086035,571.354891 10.989692,571.725434 10.608514,571.761321 -2.722109,568.414830 "/>
  <edge id="724068308_1" from="Custom99" to="113915731" numLanes="1" width="3.5" shape="1113.318278,986.528397 1096.869414,905.239399 1080.657238,847.301915 1075.236444,831.130730 1071.204336,822.358876 1064.316022,803.592956 1040.557251,743.749502 1024.783013,700.131361 1011.248046,672.824939 993.407557,628.474821 978.195101,588.916575 972.569393,574.307683 958.544203,535.983663 956.205405,529.426786 939.290519,490.229941 927.244829,462.493500 901.517730,414.658603 878.799782,373.643463 864.940059,348.653686 856.045496,333.078317 815.958395,282.674679 779.265470,251.632052 742.484437,218.208140 715.014448,196.437996 675.206588,167.377961 646.882754,147.456950 638.450294,141.378661 548.848821,77.210128 506.066616,48.123192 417.063829,-12.397355 352.305592,-61.272109 340.343794,-72.848759 305.047426,-92.969494 "/>
  <edge id="-724068308_1" to="Custom99" from="113915731" numLanes="1" width="3.5" shape="305.047426,-92.969494 340.343794,-72.848759 352.305592,-61.272109 417.063829,-12.397355 506.066616,48.123192 548.848821,77.210128 638.450294,141.378661 646.882754,147.456950 675.206588,167.377961 715.014448,196.437996 742.484437,218.208140 779.265470,251.632052 815.958395,282.674679 856.045496,333.078317 864.940059,348.653686 878.799782,373.643463 901.517730,414.658603 927.244829,462.493500 939.290519,490.229941 956.205405,529.426786 958.544203,535.983663 972.569393,574.307683 978.195101,588.916575 993.407557,628.474821 1011.248046,672.824939 1024.783013,700.131361 1040.557251,743.749502 1064.316022,803.592956 1071.204336,822.358876 1075.236444,831.130730 1080.657238,847.301915 1096.869414,905.239399 1113.318278,986.528397 "/>
  <edge id="724068308_4" from="113915731" to="113915746" numLanes="1" width="3.5" shape="297.737379,-96.087392 266.577574,-105.325227 246.231589,-111.266874 245.606957,-111.447886 233.023590,-113.966598 222.777756,-116.069929 194.740787,-120.321402 169.389675,-123.104467 "/>
  <edge id="-724068308_4" to="113915731" from="113915746" numLanes="1" width="3.5" shape="169.389675,-123.104467 194.740787,-120.321402 222.777756,-116.069929 233.023590,-113.966598 245.606957,-111.447886 246.231589,-111.266874 266.577574,-105.325227 297.737379,-96.087392 "/>
  <edge id="26962987_1" from="113915731" to="295462889" numLanes="1" width="4.0" shape="298.817736,-91.130364 296.829071,-80.571739 "/>
  <edge id="26962997_1" from="Custom100" to="295462889" numLanes="1" width="4.0" shape="225.431278,-91.376993 293.701415,-75.244178 "/>
  <edge id="26962997_2" from="295462889" to="Custom101" numLanes="1" width="4.0" shape="300.645570,-72.625875 319.455726,-62.614878 "/>
  <edge id="26963007_1" from="Custom102" to="295462978" numLanes="1" width="4.0" shape="221.674712,-77.959791 290.455097,-58.415942 "/>
  <edge id="26963007_2" from="295462978" to="Custom103" numLanes="1" width="4.0" shape="298.149388,-56.228138 333.460381,-46.180970 "/>
  <edge id="26962987_2" from="295462889" to="295462978" numLanes="1" width="4.0" shape="295.348690,-72.709706 293.623939,-63.547419 "/>
  <edge id="26963013_1" from="Custom104" to="295463020" numLanes="1" width="4.0" shape="218.067999,-60.591958 287.094453,-40.630364 "/>
  <edge id="26963013_2" from="295463020" to="Custom105" numLanes="1" width="4.0" shape="294.779763,-38.408155 330.645247,-28.038980 "/>
  <edge id="26962987_3" from="295462978" to="295463020" numLanes="1" width="4.0" shape="292.143024,-55.686227 290.268266,-45.741698 "/>
  <edge id="26963017_1" from="Custom106" to="295463094" numLanes="1" width="4.0" shape="214.520148,-41.639689 283.686047,-22.454404 "/>
  <edge id="26963017_2" from="295463094" to="Custom107" numLanes="1" width="4.0" shape="291.395833,-20.317040 326.292459,-10.648093 "/>
  <edge id="26962987_4" from="295463020" to="295463094" numLanes="1" width="4.0" shape="288.786198,-37.880181 286.850748,-27.613759 "/>
  <edge id="26963020_1" from="Custom108" to="295463171" numLanes="1" width="4.0" shape="211.756913,-22.702877 280.297121,-4.386272 "/>
  <edge id="26963020_2" from="295463171" to="Custom109" numLanes="1" width="4.0" shape="288.025644,-2.320556 321.924604,6.741673 "/>
  <edge id="26962987_5" from="295463094" to="295463171" numLanes="1" width="4.0" shape="285.368907,-19.752065 283.453242,-9.586949 "/>
  <edge id="26963040_1" from="Custom110" to="295463290" numLanes="1" width="4.0" shape="208.166847,-4.993094 276.961433,13.331280 "/>
  <edge id="26963040_2" from="295463290" to="Custom111" numLanes="1" width="4.0" shape="284.692430,15.389789 317.552564,24.136174 "/>
  <edge id="26962987_6" from="295463171" to="295463290" numLanes="1" width="4.0" shape="281.972045,-1.725060 280.116383,8.127148 "/>
  <edge id="26963041_1" from="Custom112" to="295463363" numLanes="1" width="4.0" shape="204.577557,12.835416 273.594821,31.211238 "/>
  <edge id="26963041_2" from="295463363" to="Custom113" numLanes="1" width="4.0" shape="281.325920,33.269057 312.390893,41.535408 "/>
  <edge id="26962987_7" from="295463290" to="295463363" numLanes="1" width="4.0" shape="278.635791,15.989043 276.749467,26.006699 "/>
  <edge id="26963052_1" from="Custom114" to="295463488" numLanes="1" width="4.0" shape="201.753603,30.974899 270.078860,49.806616 "/>
  <edge id="26963052_2" from="295463488" to="Custom115" numLanes="1" width="4.0" shape="277.791517,51.932042 308.804825,60.477262 "/>
  <edge id="26962987_8" from="295463363" to="295463488" numLanes="1" width="4.0" shape="275.269171,33.868601 273.241120,44.640371 "/>
  <edge id="26963061_1" from="Custom116" to="295463533" numLanes="1" width="4.0" shape="197.407104,49.151047 266.707437,67.735035 "/>
  <edge id="26963061_2" from="295463533" to="Custom117" numLanes="1" width="4.0" shape="274.433268,69.808454 304.431822,77.865588 "/>
  <edge id="26962987_9" from="295463488" to="295463533" numLanes="1" width="4.0" shape="271.759432,52.501106 269.865397,62.537846 "/>
  <edge id="26963062_1" from="Custom118" to="295463587" numLanes="1" width="4.0" shape="193.857095,68.102281 263.289182,85.988759 "/>
  <edge id="26963062_2" from="295463587" to="Custom119" numLanes="1" width="4.0" shape="271.035646,87.985183 299.289373,95.269847 "/>
  <edge id="26962987_10" from="295463533" to="295463587" numLanes="1" width="4.0" shape="268.383636,70.400414 266.435988,80.748956 "/>
  <edge id="26963067_1" from="Custom120" to="295463670" numLanes="1" width="4.0" shape="191.059349,86.245662 259.891467,104.039214 "/>
  <edge id="26963067_2" from="295463670" to="Custom121" numLanes="1" width="4.0" shape="267.636238,106.042159 293.338508,112.692138 "/>
  <edge id="26962987_11" from="295463587" to="295463670" numLanes="1" width="4.0" shape="264.956505,88.611065 263.038840,98.803145 "/>
  <edge id="26962987_12" from="295463670" to="295462726" numLanes="1" width="4.0" shape="261.558449,106.664336 256.983353,130.937970 "/>
  <edge id="26963510_1" from="295469008" to="295468769" numLanes="1" width="4.0" shape="60.335851,-287.784303 59.078462,-289.719529 "/>
  <edge id="26963510_2" from="295468769" to="295469008" numLanes="1" width="4.0" shape="58.630005,-294.879857 60.827493,-300.036856 68.398367,-302.796219 75.423561,-298.690401 75.301057,-292.143921 73.269207,-286.959532 67.041356,-285.466166 59.407716,-288.549109 "/>
  <edge id="27159232_1" from="Custom122" to="297981956" numLanes="1" width="4.0" shape="315.031210,-197.165230 270.892643,-202.565595 266.300142,-207.650140 266.161859,-215.180782 269.627180,-217.253938 "/>
  <edge id="27159232_2" from="297981956" to="Custom123" numLanes="1" width="4.0" shape="273.734667,-221.155200 284.937858,-233.449812 319.145016,-229.627123 "/>
  <edge id="12515718_2" from="7271009740" to="7271009745" numLanes="1" width="4.0" shape="-66.854529,-118.095825 -68.944029,-92.030087 -74.790046,-31.614030 -74.791394,-31.599548 -80.460946,31.798751 -83.595885,60.735060 "/>
  <edge id="12515718_3" from="7271009745" to="113996071" numLanes="1" width="4.0" shape="-84.457204,68.688748 -86.888565,91.150533 "/>
  <edge id="724068299_1" from="113927525" to="113927527" numLanes="1" width="4.0" shape="142.472254,116.257840 140.173144,140.967511 "/>
  <edge id="724068299_2" from="113927527" to="297990169" numLanes="1" width="4.0" shape="138.974227,148.606778 134.112377,170.495842 133.221120,172.122969 130.394907,177.282657 130.279549,177.532731 123.244272,196.037829 115.526217,214.134270 111.356136,223.907428 111.300956,224.052005 111.257119,224.200415 109.156497,232.478522 105.990377,244.983536 104.324485,251.548403 104.292961,251.695690 100.958538,270.756461 99.874032,276.982673 99.853124,277.138897 99.844584,277.296283 99.398943,307.414400 99.215389,310.535970 99.215113,310.540756 99.172314,311.299641 "/>
  <edge id="724068299_3" from="297990169" to="4692605423" numLanes="1" width="4.0" shape="98.882064,319.475311 99.803125,343.636754 "/>
  <edge id="12525193_2" from="299343485" to="297992456" numLanes="1" width="4.0" shape="-39.536982,-205.228449 -28.792611,-230.834698 "/>
  <edge id="12525193_4" from="297992456" to="295468676" numLanes="1" width="4.0" shape="-25.705286,-238.220921 -22.620481,-245.629715 -4.021773,-290.296158 "/>
  <edge id="27199063_1" from="298477570" to="298477390" numLanes="1" width="4.0" shape="-299.524879,70.650918 -310.295404,81.076456 -310.431777,81.222337 -310.552923,81.381091 -310.657634,81.551134 -310.744865,81.730772 -310.813747,81.918213 -310.863593,82.111590 -310.893907,82.308973 -310.904385,82.508395 -310.894925,82.707868 -310.865618,82.905404 -310.816759,83.099032 -310.748834,83.286822 -307.477027,91.090342 -307.389523,91.272615 -307.284063,91.445121 -307.161725,91.606098 -307.023759,91.753900 -280.148460,117.774260 -277.467238,122.930641 -279.986253,129.615891 -307.365862,157.361549 -307.498537,157.510120 -307.615776,157.671150 -307.716415,157.843044 -307.799457,158.024096 -307.864078,158.212511 -307.909636,158.406419 -307.935681,158.603897 -307.941953,158.802986 -307.751962,169.170619 -307.736039,169.388478 -307.696451,169.603301 -307.633672,169.812526 -306.845120,171.998889 -306.769592,172.179942 -306.676689,172.352725 -306.567306,172.515576 -306.442495,172.666926 -306.303456,172.805321 -306.151528,172.929428 -305.988172,173.038054 -305.814959,173.130154 -305.633557,173.204840 -305.445711,173.261396 -303.189987,173.821492 -302.975425,173.862476 -302.757674,173.879817 -302.539330,173.873306 -249.097572,169.349590 -248.895782,169.322103 -248.697833,169.274238 -248.505778,169.206490 -246.222648,168.267841 -246.037318,168.180292 -245.861922,168.074234 -245.698303,167.950781 -245.548177,167.811230 -245.413123,167.657046 -245.294559,167.489850 -245.193731,167.311396 -245.111696,167.123560 -244.240924,164.813689 -244.178881,164.619716 -244.136886,164.420439 -244.115374,164.217925 -240.389541,96.409938 "/>
  <edge id="27199063_2" from="298477390" to="298477570" numLanes="1" width="4.0" shape="-245.089822,88.921337 -284.788191,72.375845 -285.002036,72.300636 -285.223019,72.250109 -297.799286,70.116144 "/>
  <edge id="370814340_4" from="298478034" to="113874369" numLanes="3" width="3.5" shape="-226.012541,102.761607 -226.534077,122.713112 -228.090410,181.818160 "/>
  <edge id="-370814340_4" to="298478034" from="113874369" numLanes="1" width="3.5" shape="-228.090410,181.818160 -226.534077,122.713112 -226.012541,102.761607 "/>
  <edge id="27270882_1" from="299343485" to="299343493" numLanes="1" width="4.0" shape="-39.784830,-199.133433 -27.933441,-195.107153 "/>
  <edge id="27270885_1" from="299343508" to="299343846" numLanes="1" width="4.0" shape="-7.470827,-244.727118 -15.668793,-222.602476 "/>
  <edge id="27270885_2" from="299343846" to="299343493" numLanes="1" width="4.0" shape="-18.448840,-215.101363 -23.987641,-200.159922 "/>
  <edge id="27270882_2" from="299343493" to="299343847" numLanes="1" width="4.0" shape="-20.870548,-192.098661 -14.150823,-188.618509 -13.977007,-188.538785 -13.796372,-188.476026 -13.610569,-188.430804 -13.421297,-188.403535 52.623391,-182.092619 52.835357,-182.083668 53.047078,-182.097221 53.256173,-182.133124 55.591491,-182.662991 55.784333,-182.717028 55.970804,-182.790079 56.149035,-182.881413 56.317237,-182.990114 56.473726,-183.115092 56.616930,-183.255094 56.745416,-183.408715 56.857893,-183.574416 56.953235,-183.750535 57.986396,-185.910871 58.067649,-186.106850 58.127684,-186.310334 58.165827,-186.519032 60.419288,-204.068496 "/>
  <edge id="27270882_3" from="299343847" to="299343508" numLanes="1" width="4.0" shape="61.437593,-212.003737 63.956752,-231.646693 63.971869,-231.833869 63.969364,-232.021638 63.949259,-232.208344 63.911732,-232.392341 63.857114,-232.572008 63.785885,-232.745760 60.517196,-239.761347 60.427942,-239.931133 60.322833,-240.091588 60.202837,-240.241235 60.069057,-240.378699 59.922723,-240.502714 59.765182,-240.612141 59.597882,-240.705973 59.422364,-240.783346 59.240240,-240.843548 59.053186,-240.886027 58.862924,-240.910391 -5.436816,-246.025917 "/>
  <edge id="370814340_1" from="3745003439" to="113874389" numLanes="3" width="3.5" shape="-174.441681,-158.577572 -186.572935,-127.447887 -186.666859,-127.173859 -197.193909,-91.742921 "/>
  <edge id="-370814340_1" to="3745003439" from="113874389" numLanes="1" width="3.5" shape="-197.193909,-91.742921 -186.666859,-127.173859 -186.572935,-127.447887 -174.441681,-158.577572 "/>
  <edge id="370814340_5" from="113874389" to="113874380" numLanes="3" width="3.5" shape="-200.373923,-80.631872 -211.834836,-25.985973 -211.877713,-25.737174 -219.451075,30.194552 "/>
  <edge id="-370814340_5" to="113874389" from="113874380" numLanes="1" width="3.5" shape="-219.451075,30.194552 -211.877713,-25.737174 -211.834836,-25.985973 -200.373923,-80.631872 "/>
  <edge id="27272299_1" from="113874389" to="299360331" numLanes="1" width="4.0" shape="-200.384352,-91.592607 -210.390029,-108.975064 -212.826464,-114.633739 -229.164606,-152.579450 -229.256473,-152.765578 -246.256509,-183.128731 -246.363107,-183.298549 -246.486172,-183.456840 -255.881236,-194.365439 "/>
  <edge id="27272299_2" from="299360331" to="Custom124" numLanes="1" width="4.0" shape="-260.984756,-200.455074 -270.465785,-212.082570 "/>
  <edge id="28112419_1" from="Custom125" to="308799599" numLanes="1" width="4.0" shape="-248.794862,-17.416957 -247.841719,-41.182500 -247.844549,-41.395795 -247.870080,-41.607576 -247.918022,-41.815432 -248.576678,-44.105649 -248.642671,-44.297783 -248.727814,-44.482231 -248.831229,-44.657091 -248.951849,-44.820557 -249.088430,-44.970944 -249.239562,-45.106699 -249.403686,-45.226423 -249.579109,-45.328880 -249.764021,-45.413012 -251.980430,-46.288481 -252.182724,-46.356155 -252.391075,-46.401899 -252.603113,-46.425192 -270.205853,-47.413058 -283.392923,-56.681534 "/>