<?xml version="1.0" encoding="UTF-8"?>
<!-- generated on 2020-12-10 11:05:55.041000 by $Id$ v1_8_0+0044-4820708f3d
  options: -n spidertest.net.xml -e 1750 -o spidertest.trips.xml
-->
<routes xmlns:xsi="http://www.w3.org/2001/XMLSchema-instance" xsi:noNamespaceSchemaLocation="http://sumo.dlr.de/xsd/routes_file.xsd">
    <trip id="0" depart="0.00" from="AT8AS8" to="AB23A1"/>
    <trip id="1" depart="1.00" from="AJ10AI10" to="AH21AH20"/>
    <trip id="2" depart="2.00" from="AW5AW6" to="AV11AV10"/>
    <trip id="3" depart="3.00" from="BB23BB22" to="AD1AC1"/>
    <trip id="4" depart="4.00" from="AN20AN19" to="AB27A1"/>
    <trip id="5" depart="5.00" from="AH18AH19" to="AP7AP6"/>
    <trip id="6" depart="6.00" from="AB24AB23" to="AG2AF2"/>
    <trip id="7" depart="7.00" from="AU16AV16" to="AR12AS12"/>
    <trip id="8" depart="8.00" from="AH1AG1" to="AS20AT20"/>
    <trip id="9" depart="9.00" from="AZ10BA10" to="A1AB3"/>
    <trip id="10" depart="10.00" from="AY7AZ7" to="AV28AV1"/>
    <trip id="11" depart="11.00" from="AK8AL8" to="AF20AF21"/>
    <trip id="12" depart="12.00" from="BD22BC22" to="AK5AK6"/>
    <trip id="13" depart="13.00" from="AD23AE23" to="AD27AC27"/>
    <trip id="14" depart="14.00" from="BA14BB14" to="AS6AR6"/>
    <trip id="15" depart="15.00" from="AY8AZ8" to="AW26AX26"/>
    <trip id="16" depart="16.00" from="AQ5AQ4" to="BD8BD7"/>
    <trip id="17" depart="17.00" from="AM12AN12" to="AR18AR19"/>
    <trip id="18" depart="18.00" from="AZ26AZ27" to="AT18AT19"/>
    <trip id="19" depart="19.00" from="BA25BB25" to="AS11AT11"/>
    <trip id="20" depart="20.00" from="AV6AW6" to="AC13AC12"/>
    <trip id="21" depart="21.00" from="AH25AH24" to="AJ21AI21"/>
    <trip id="22" depart="22.00" from="AD14AC14" to="AH2AH3"/>
    <trip id="23" depart="23.00" from="AD3AE3" to="AJ12AJ11"/>
    <trip id="24" depart="24.00" from="AT4AU4" to="AL28AL1"/>
    <trip id="25" depart="25.00" from="AL5AM5" to="AH10AI10"/>
    <trip id="26" depart="26.00" from="AI3AI2" to="BC5BD5"/>
    <trip id="27" depart="27.00" from="AU15AU14" to="AT10AT9"/>
    <trip id="28" depart="28.00" from="AF6AG6" to="AW26AW25"/>
    <trip id="29" depart="29.00" from="AF27AF26" to="AM13AM14"/>
    <trip id="30" depart="30.00" from="BE25BD25" to="AT8AT9"/>
    <trip id="31" depart="31.00" from="AR21AS21" to="AV18AU18"/>
    <trip id="32" depart="32.00" from="BA10BB10" to="AY10AZ10"/>
    <trip id="33" depart="33.00" from="AH26AH25" to="AB28AC28"/>
    <trip id="34" depart="34.00" from="AK15AL15" to="AI3AJ3"/>
    <trip id="35" depart="35.00" from="AH12AG12" to="BD11BC11"/>
    <trip id="36" depart="36.00" from="BB11BA11" to="AK15AK14"/>
    <trip id="37" depart="37.00" from="AU20AU21" to="AM26AM25"/>
    <trip id="38" depart="38.00" from="BC15BB15" to="AO23AO22"/>
    <trip id="39" depart="39.00" from="AI28AI1" to="AI14AH14"/>
    <trip id="40" depart="40.00" from="AR25AR26" to="AI26AI27"/>
    <trip id="41" depart="41.00" from="AS18AR18" to="BB28BA28"/>
    <trip id="42" depart="42.00" from="AM2AM1" to="AH19AG19"/>
    <trip id="43" depart="43.00" from="BE7BD7" to="AQ11AP11"/>
    <trip id="44" depart="44.00" from="AD22AD21" to="AC14AC15"/>
    <trip id="45" depart="45.00" from="AE11AD11" to="AT25AS25"/>
    <trip id="46" depart="46.00" from="AY23AY22" to="AN20AN21"/>
    <trip id="47" depart="47.00" from="AC27AC26" to="AM15AM16"/>
    <trip id="48" depart="48.00" from="BE5BE4" to="AQ26AQ25"/>
    <trip id="49" depart="49.00" from="BD6BD7" to="BA25AZ25"/>
    <trip id="50" depart="50.00" from="AB12AB13" to="AW1AW2"/>
    <trip id="51" depart="51.00" from="AV15AV16" to="AQ6AP6"/>
    <trip id="52" depart="52.00" from="AI3AH3" to="AT9AT10"/>
    <trip id="53" depart="53.00" from="AE12AE13" to="AN4AM4"/>
    <trip id="54" depart="54.00" from="AO1AN1" to="BD1BC1"/>
    <trip id="55" depart="55.00" from="BB10BB9" to="AI27AH27"/>
    <trip id="56" depart="56.00" from="AP3AP2" to="AG13AF13"/>
    <trip id="57" depart="57.00" from="BC13BC14" to="BA6AZ6"/>
    <trip id="58" depart="58.00" from="AJ28AJ27" to="AT7AT8"/>
    <trip id="59" depart="59.00" from="AT10AT9" to="AF19AF18"/>
    <trip id="60" depart="60.00" from="AX26AX27" to="AQ8AP8"/>
    <trip id="61" depart="61.00" from="AY13AX13" to="AQ27AQ26"/>
    <trip id="62" depart="62.00" from="A1AB10" to="AK22AK21"/>
    <trip id="63" depart="63.00" from="AB19AB18" to="BC26BC25"/>
    <trip id="64" depart="64.00" from="BB13BA13" to="AZ28AZ27"/>
    <trip id="65" depart="65.00" from="AJ9AJ10" to="AC22AC23"/>
    <trip id="66" depart="66.00" from="BB12BB13" to="BD14BD13"/>
    <trip id="67" depart="67.00" from="AD18AE18" to="AP19AO19"/>
    <trip id="68" depart="68.00" from="AC5AB5" to="AX24AY24"/>
    <trip id="69" depart="69.00" from="AX2AX1" to="AE25AF25"/>
    <trip id="70" depart="70.00" from="AP10AO10" to="AR16AS16"/>
    <trip id="71" depart="71.00" from="AI28AI27" to="BA7BB7"/>
    <trip id="72" depart="72.00" from="AN21AN20" to="AH12AI12"/>
    <trip id="73" depart="73.00" from="AQ8AP8" to="AW27AV27"/>
    <trip id="74" depart="74.00" from="AG3AH3" to="AK12AL12"/>
    <trip id="75" depart="75.00" from="BE4BE3" to="AU16AV16"/>
    <trip id="76" depart="76.00" from="AN7AM7" to="AQ17AR17"/>
    <trip id="77" depart="77.00" from="AE1AE28" to="AH22AH23"/>
    <trip id="78" depart="78.00" from="AK6AL6" to="AS20AR20"/>
    <trip id="79" depart="79.00" from="AH27AH26" to="AH19AI19"/>
    <trip id="80" depart="80.00" from="AC6AC7" to="AT28AS28"/>
    <trip id="81" depart="81.00" from="AH26AH25" to="BB7BB8"/>
    <trip id="82" depart="82.00" from="BA24AZ24" to="AC6AC7"/>
    <trip id="83" depart="83.00" from="AH6AI6" to="AU4AV4"/>
    <trip id="84" depart="84.00" from="AH14AI14" to="AE2AD2"/>
    <trip id="85" depart="85.00" from="BC4BD4" to="AR6AR7"/>
    <trip id="86" depart="86.00" from="AO8AN8" to="AY18AX18"/>
    <trip id="87" depart="87.00" from="AY9AY10" to="AG21AH21"/>
    <trip id="88" depart="88.00" from="AD27AD26" to="AN28AM28"/>
    <trip id="89" depart="89.00" from="AN21AO21" to="AO3AO2"/>
    <trip id="90" depart="90.00" from="AW26AW25" to="AU8AU9"/>
    <trip id="91" depart="91.00" from="BE1BD1" to="AD28AD27"/>
    <trip id="92" depart="92.00" from="AM5AL5" to="AK8AJ8"/>
    <trip id="93" depart="93.00" from="BA25BB25" to="AI15AJ15"/>
    <trip id="94" depart="94.00" from="AG21AH21" to="AO15AP15"/>
    <trip id="95" depart="95.00" from="AN20AN19" to="AJ12AK12"/>
    <trip id="96" depart="96.00" from="AI16AJ16" to="BC21BC22"/>
    <trip id="97" depart="97.00" from="AO11AN11" to="BA25BA26"/>
    <trip id="98" depart="98.00" from="AR17AR16" to="AC17AC16"/>
    <trip id="99" depart="99.00" from="BE9BD9" to="AZ5AZ4"/>
    <trip id="100" depart="100.00" from="BD4BE4" to="BC24BB24"/>
    <trip id="101" depart="101.00" from="BA15BB15" to="AF2AF3"/>
    <trip id="102" depart="102.00" from="AP18AQ18" to="AH14AH15"/>
    <trip id="103" depart="103.00" from="AM3AN3" to="AC23AC22"/>
    <trip id="104" depart="104.00" from="AM13AM12" to="BE20BE19"/>
    <trip id="105" depart="105.00" from="AI28AJ28" to="AY17AY18"/>
    <trip id="106" depart="106.00" from="AO20AN20" to="AN21AN20"/>
    <trip id="107" depart="107.00" from="BD22BC22" to="BE4BE5"/>
    <trip id="108" depart="108.00" from="AR20AS20" to="AW18AW17"/>
    <trip id="109" depart="109.00" from="AF20AE20" to="AJ27AI27"/>
    <trip id="110" depart="110.00" from="BD4BD5" to="AS13AS14"/>
    <trip id="111" depart="111.00" from="AR10AR11" to="AX15AX14"/>
    <trip id="112" depart="112.00" from="AC22AB22" to="AS17AS18"/>
    <trip id="113" depart="113.00" from="AP5AP4" to="BA19BA18"/>
    <trip id="114" depart="114.00" from="AF22AE22" to="BD25BC25"/>
    <trip id="115" depart="115.00" from="AD14AD13" to="AG19AF19"/>
    <trip id="116" depart="116.00" from="AS25AT25" to="AV10AU10"/>
    <trip id="117" depart="117.00" from="AH4AH5" to="AE19AE20"/>
    <trip id="118" depart="118.00" from="BB21BC21" to="AI13AJ13"/>
    <trip id="119" depart="119.00" from="AS25AS24" to="AT19AT18"/>
    <trip id="120" depart="120.00" from="AN19AM19" to="AS17AS16"/>
    <trip id="121" depart="121.00" from="AQ21AP21" to="BC4BB4"/>
    <trip id="122" depart="122.00" from="AG6AG7" to="AW16AW17"/>
    <trip id="123" depart="123.00" from="AH7AH6" to="AM26AM25"/>
    <trip id="124" depart="124.00" from="AU7AT7" to="AJ2AK2"/>
    <trip id="125" depart="125.00" from="AK16AK17" to="AX18AX19"/>
    <trip id="126" depart="126.00" from="AC7AD7" to="AO22AP22"/>
    <trip id="127" depart="127.00" from="BE8BD8" to="BE5BE4"/>
    <trip id="128" depart="128.00" from="AC8AC9" to="AH14AG14"/>
    <trip id="129" depart="129.00" from="AI28AJ28" to="BC2BD2"/>
    <trip id="130" depart="130.00" from="BB14BC14" to="BB13BB14"/>
    <trip id="131" depart="131.00" from="AL5AL4" to="AF22AF23"/>
    <trip id="132" depart="132.00" from="AZ3AZ2" to="AV5AW5"/>
    <trip id="133" depart="133.00" from="AT12AU12" to="BE22BE23"/>
    <trip id="134" depart="134.00" from="AU1AU2" to="A1AB8"/>
    <trip id="135" depart="135.00" from="AZ17AZ16" to="AJ2AJ1"/>
    <trip id="136" depart="136.00" from="AU27AT27" to="BC7BC8"/>
    <trip id="137" depart="137.00" from="AE3AF3" to="AE15AF15"/>
    <trip id="138" depart="138.00" from="AD8AE8" to="AR19AR20"/>
    <trip id="139" depart="139.00" from="AI7AJ7" to="AS7AR7"/>
    <trip id="140" depart="140.00" from="AW17AX17" to="AG6AF6"/>
    <trip id="141" depart="141.00" from="AT3AU3" to="AI27AI28"/>
    <trip id="142" depart="142.00" from="AP20AP19" to="BB7BB6"/>
    <trip id="143" depart="143.00" from="BA13BA14" to="AD23AD24"/>
    <trip id="144" depart="144.00" from="AN21AO21" to="AJ11AJ10"/>
    <trip id="145" depart="145.00" from="A1AB2" to="AX6AX7"/>
    <trip id="146" depart="146.00" from="AT6AS6" to="AI26AH26"/>
    <trip id="147" depart="147.00" from="AW9AW8" to="AR18AR17"/>
    <trip id="148" depart="148.00" from="AN25AN24" to="AB11A1"/>
    <trip id="149" depart="149.00" from="AD10AC10" to="BB16BC16"/>
    <trip id="150" depart="150.00" from="BB6BB5" to="AR13AR12"/>
    <trip id="151" depart="151.00" from="AZ4AY4" to="AS16AS15"/>
    <trip id="152" depart="152.00" from="AF15AF14" to="AE25AD25"/>
    <trip id="153" depart="153.00" from="AJ9AK9" to="BB2BA2"/>
    <trip id="154" depart="154.00" from="AY26AY27" to="BA24BB24"/>
    <trip id="155" depart="155.00" from="BB2BA2" to="AH11AH10"/>
    <trip id="156" depart="156.00" from="AI16AI17" to="AD5AD4"/>
    <trip id="157" depart="157.00" from="AY14AY13" to="BB17BB18"/>
    <trip id="158" depart="158.00" from="AM8AM7" to="AT1AT2"/>
    <trip id="159" depart="159.00" from="AF1AG1" to="BC27BB27"/>
    <trip id="160" depart="160.00" from="BA28BA1" to="BE11BE10"/>
    <trip id="161" depart="161.00" from="AZ12AY12" to="BB15BB14"/>
    <trip id="162" depart="162.00" from="AB22AC22" to="AW5AW6"/>
    <trip id="163" depart="163.00" from="AK2AJ2" to="BC27BD27"/>
    <trip id="164" depart="164.00" from="AY4AZ4" to="BA27BB27"/>
    <trip id="165" depart="165.00" from="AZ12AY12" to="AI3AH3"/>
    <trip id="166" depart="166.00" from="AY1AY2" to="AD9AE9"/>
    <trip id="167" depart="167.00" from="BA7BA8" to="BA23AZ23"/>
    <trip id="168" depart="168.00" from="AH20AI20" to="AZ16BA16"/>
    <trip id="169" depart="169.00" from="AO24AO25" to="AJ7AJ6"/>
    <trip id="170" depart="170.00" from="AY26AX26" to="AH25AG25"/>
    <trip id="171" depart="171.00" from="AB21AC21" to="AG24AF24"/>
    <trip id="172" depart="172.00" from="AK25AK26" to="BA28AZ28"/>
    <trip id="173" depart="173.00" from="BD3BC3" to="AJ13AJ12"/>
    <trip id="174" depart="174.00" from="AT9AU9" to="AM2AM3"/>
    <trip id="175" depart="175.00" from="BE16BE17" to="AQ5AQ4"/>
    <trip id="176" depart="176.00" from="BC7BD7" to="AE15AF15"/>
    <trip id="177" depart="177.00" from="BD6BC6" to="AG12AH12"/>
    <trip id="178" depart="178.00" from="BD26BD27" to="AI28AJ28"/>
    <trip id="179" depart="179.00" from="AE10AD10" to="AN4AM4"/>
    <trip id="180" depart="180.00" from="AW25AX25" to="AK14AK13"/>
    <trip id="181" depart="181.00" from="AS8AR8" to="AQ12AQ13"/>
    <trip id="182" depart="182.00" from="AM18AM19" to="AS11AS10"/>
    <trip id="183" depart="183.00" from="AI1AJ1" to="AW10AW11"/>
    <trip id="184" depart="184.00" from="A1AB14" to="BC23BC22"/>
    <trip id="185" depart="185.00" from="AQ7AQ6" to="AW19AW18"/>
    <trip id="186" depart="186.00" from="AX10AW10" to="AU6AU5"/>
    <trip id="187" depart="187.00" from="AL27AM27" to="AC5AD5"/>
    <trip id="188" depart="188.00" from="AU27AV27" to="AK27AK26"/>
    <trip id="189" depart="189.00" from="AK14AK15" to="BA15BA14"/>
    <trip id="190" depart="190.00" from="AW19AW20" to="AJ3AJ2"/>
    <trip id="191" depart="191.00" from="AK10AL10" to="AN10AM10"/>
    <trip id="192" depart="192.00" from="AM5AL5" to="AJ26AJ25"/>
    <trip id="193" depart="193.00" from="AE24AF24" to="AN1AM1"/>
    <trip id="194" depart="194.00" from="BC8BD8" to="AV11AW11"/>
    <trip id="195" depart="195.00" from="BB5BB4" to="AT16AS16"/>
    <trip id="196" depart="196.00" from="AJ3AK3" to="AR15AR14"/>
    <trip id="197" depart="197.00" from="A1AB10" to="AJ1AI1"/>
    <trip id="198" depart="198.00" from="AN27AM27" to="AS14AR14"/>
    <trip id="199" depart="199.00" from="AU1AV1" to="AO28AO27"/>
    <trip id="200" depart="200.00" from="AO10AO11" to="AH14AH15"/>
    <trip id="201" depart="201.00" from="AO8AO7" to="BB3BC3"/>
    <trip id="202" depart="202.00" from="AY26AY27" to="AF5AF6"/>
    <trip id="203" depart="203.00" from="AD18AC18" to="AQ15AR15"/>
    <trip id="204" depart="204.00" from="AT2AT3" to="AK4AK5"/>
    <trip id="205" depart="205.00" from="AZ18AZ17" to="AX17AY17"/>
    <trip id="206" depart="206.00" from="AU8AT8" to="AH22AH23"/>
    <trip id="207" depart="207.00" from="AG2AG1" to="AB22AB23"/>
    <trip id="208" depart="208.00" from="AI12AI13" to="AP10AO10"/>
    <trip id="209" depart="209.00" from="BA16BB16" to="AC8AB8"/>
    <trip id="210" depart="210.00" from="AN15AM15" to="AT27AS27"/>
    <trip id="211" depart="211.00" from="AG25AG24" to="AV26AW26"/>
    <trip id="212" depart="212.00" from="AP25AP24" to="AI11AJ11"/>
    <trip id="213" depart="213.00" from="AU21AT21" to="A1AB26"/>
    <trip id="214" depart="214.00" from="AX17AY17" to="AX5AY5"/>
    <trip id="215" depart="215.00" from="AD8AD9" to="AN23AM23"/>
    <trip id="216" depart="216.00" from="AG10AG9" to="BD22BD23"/>
    <trip id="217" depart="217.00" from="AQ18AP18" to="AC17AB17"/>
    <trip id="218" depart="218.00" from="AI16AI15" to="BA15BA16"/>
    <trip id="219" depart="219.00" from="AO21AO20" to="AY4AX4"/>
    <trip id="220" depart="220.00" from="AU3AV3" to="BE23BE22"/>
    <trip id="221" depart="221.00" from="AS26AR26" to="BD17BC17"/>
    <trip id="222" depart="222.00" from="BB22BC22" to="AT13AT14"/>
    <trip id="223" depart="223.00" from="AW19AV19" to="AP7AO7"/>
    <trip id="224" depart="224.00" from="AZ27AZ28" to="AR15AQ15"/>
    <trip id="225" depart="225.00" from="BB27BB28" to="AX11AX12"/>
    <trip id="226" depart="226.00" from="AO9AO8" to="AI23AI24"/>
    <trip id="227" depart="227.00" from="AI14AI15" to="AT6AT7"/>
    <trip id="228" depart="228.00" from="AX2AX1" to="AQ1AR1"/>
    <trip id="229" depart="229.00" from="AT24AT23" to="AI9AI8"/>
    <trip id="230" depart="230.00" from="AD12AC12" to="AJ19AI19"/>
    <trip id="231" depart="231.00" from="AI7AH7" to="AK19AK20"/>
    <trip id="232" depart="232.00" from="AQ8AQ9" to="AE7AD7"/>
    <trip id="233" depart="233.00" from="AH28AH1" to="AV24AW24"/>
    <trip id="234" depart="234.00" from="AV8AV7" to="AC27AD27"/>
    <trip id="235" depart="235.00" from="AM9AM10" to="AR10AS10"/>
    <trip id="236" depart="236.00" from="AN16AN15" to="AG8AG9"/>
    <trip id="237" depart="237.00" from="AN19AO19" to="BB7BA7"/>
    <trip id="238" depart="238.00" from="AS17AS18" to="AV26AU26"/>
    <trip id="239" depart="239.00" from="BA21BA22" to="AX2AW2"/>
    <trip id="240" depart="240.00" from="AM14AM15" to="A1AB27"/>
    <trip id="241" depart="241.00" from="AL18AL17" to="AX19AY19"/>
    <trip id="242" depart="242.00" from="BA19BB19" to="BD19BE19"/>
    <trip id="243" depart="243.00" from="AN18AO18" to="AX14AY14"/>
    <trip id="244" depart="244.00" from="AR13AS13" to="AS5AS6"/>
    <trip id="245" depart="245.00" from="AH1AH2" to="AH19AH18"/>
    <trip id="246" depart="246.00" from="AN5AM5" to="AB26AB25"/>
    <trip id="247" depart="247.00" from="AK5AK4" to="AV13AV12"/>
    <trip id="248" depart="248.00" from="AM6AM7" to="AF28AF27"/>
    <trip id="249" depart="249.00" from="AO3AO4" to="AE25AD25"/>
    <trip id="250" depart="250.00" from="AT20AT21" to="AB24AB25"/>
    <trip id="251" depart="251.00" from="AM24AN24" to="AR28AQ28"/>
    <trip id="252" depart="252.00" from="AB24AC24" to="AU10AV10"/>
    <trip id="253" depart="253.00" from="AE4AF4" to="AO25AP25"/>
    <trip id="254" depart="254.00" from="AC17AB17" to="AM13AM12"/>
    <trip id="255" depart="255.00" from="AH12AI12" to="AK24AK25"/>
    <trip id="256" depart="256.00" from="AX25AX24" to="AM13AM12"/>
    <trip id="257" depart="257.00" from="AX18AX19" to="AZ28BA28"/>
    <trip id="258" depart="258.00" from="AI18AJ18" to="AD15AE15"/>
    <trip id="259" depart="259.00" from="AB19AB18" to="AQ8AP8"/>
    <trip id="260" depart="260.00" from="BE9BE8" to="AL16AM16"/>
    <trip id="261" depart="261.00" from="AU17AT17" to="AY15AX15"/>
    <trip id="262" depart="262.00" from="AU18AU17" to="AX1AX28"/>
    <trip id="263" depart="263.00" from="BD16BD17" to="AG2AG1"/>
    <trip id="264" depart="264.00" from="AB1A1" to="AF19AE19"/>
    <trip id="265" depart="265.00" from="AE24AD24" to="AU5AU4"/>
    <trip id="266" depart="266.00" from="AR27AR28" to="AH18AG18"/>
    <trip id="267" depart="267.00" from="AV2AV3" to="AX3AW3"/>
    <trip id="268" depart="268.00" from="AF3AG3" to="AS9AR9"/>
    <trip id="269" depart="269.00" from="AX15AX14" to="AE15AD15"/>
    <trip id="270" depart="270.00" from="AZ19AY19" to="BD28BD1"/>
    <trip id="271" depart="271.00" from="AD9AE9" to="AB23AB24"/>
    <trip id="272" depart="272.00" from="AK13AJ13" to="AV11AW11"/>
    <trip id="273" depart="273.00" from="BD22BE22" to="AM27AL27"/>
    <trip id="274" depart="274.00" from="AW15AW16" to="AD10AE10"/>
    <trip id="275" depart="275.00" from="AV22AU22" to="AT24AU24"/>
    <trip id="276" depart="276.00" from="AD4AD5" to="AX7AY7"/>
    <trip id="277" depart="277.00" from="BA17AZ17" to="AS3AS2"/>
    <trip id="278" depart="278.00" from="AE1AE28" to="BE19BE20"/>
    <trip id="279" depart="279.00" from="AY16AY15" to="AL14AL15"/>
    <trip id="280" depart="280.00" from="AN25AO25" to="AL6AL5"/>
    <trip id="281" depart="281.00" from="AP8AO8" to="AK9AK8"/>
    <trip id="282" depart="282.00" from="BA16BA17" to="AZ20BA20"/>
    <trip id="283" depart="283.00" from="AD7AD8" to="BD25BC25"/>
    <trip id="284" depart="284.00" from="AT4AU4" to="AZ26AY26"/>
    <trip id="285" depart="285.00" from="AV9AU9" to="AN4AO4"/>
    <trip id="286" depart="286.00" from="AW3AW2" to="BD28BE28"/>
    <trip id="287" depart="287.00" from="AI5AJ5" to="AY9AZ9"/>
    <trip id="288" depart="288.00" from="AQ7AP7" to="AP17AO17"/>
    <trip id="289" depart="289.00" from="AN4AO4" to="AW28AV28"/>
    <trip id="290" depart="290.00" from="AI4AI3" to="BA18BA17"/>
    <trip id="291" depart="291.00" from="AZ27BA27" to="AD19AE19"/>
    <trip id="292" depart="292.00" from="BB15BB16" to="AI11AJ11"/>
    <trip id="293" depart="293.00" from="AO28AO1" to="AT11AT12"/>
    <trip id="294" depart="294.00" from="AM13AM12" to="AB26A1"/>
    <trip id="295" depart="295.00" from="BA17BB17" to="AG15AG16"/>
    <trip id="296" depart="296.00" from="AH13AG13" to="AY28AX28"/>
    <trip id="297" depart="297.00" from="AK8AL8" to="BB14BB13"/>
    <trip id="298" depart="298.00" from="AV3AW3" to="AJ11AI11"/>
    <trip id="299" depart="299.00" from="AB11AB12" to="BD15BD14"/>
    <trip id="300" depart="300.00" from="AD18AE18" to="AW19AX19"/>
    <trip id="301" depart="301.00" from="AP20AP19" to="AX22AY22"/>
    <trip id="302" depart="302.00" from="AV22AU22" to="AU13AU14"/>
    <trip id="303" depart="303.00" from="AP22AP21" to="AY24AX24"/>
    <trip id="304" depart="304.00" from="AD24AC24" to="AH20AG20"/>
    <trip id="305" depart="305.00" from="AV23AU23" to="AJ8AI8"/>
    <trip id="306" depart="306.00" from="AS15AS16" to="AO8AO9"/>
    <trip id="307" depart="307.00" from="AQ27AR27" to="AN23AN22"/>
    <trip id="308" depart="308.00" from="AX13AX14" to="AK27AL27"/>
    <trip id="309" depart="309.00" from="AV5AV4" to="AI6AI7"/>
    <trip id="310" depart="310.00" from="AI18AH18" to="AE1AE2"/>
    <trip id="311" depart="311.00" from="AG23AH23" to="AE19AE18"/>
    <trip id="312" depart="312.00" from="AQ5AP5" to="AX26AW26"/>
    <trip id="313" depart="313.00" from="AG18AG19" to="AH16AI16"/>
    <trip id="314" depart="314.00" from="AP17AP18" to="AW22AW23"/>
    <trip id="315" depart="315.00" from="BE11BE12" to="AQ22AQ23"/>
    <trip id="316" depart="316.00" from="AJ16AJ17" to="AD3AD2"/>
    <trip id="317" depart="317.00" from="AG25AF25" to="AH25AG25"/>
    <trip id="318" depart="318.00" from="AG13AG14" to="AB14AC14"/>
    <trip id="319" depart="319.00" from="AQ3AQ4" to="AI9AI10"/>
    <trip id="320" depart="320.00" from="BD9BD10" to="AR19AS19"/>
    <trip id="321" depart="321.00" from="AV27AW27" to="AE24AD24"/>
    <trip id="322" depart="322.00" from="BA4BA5" to="AP22AP21"/>
    <trip id="323" depart="323.00" from="BA8AZ8" to="AR9AQ9"/>
    <trip id="324" depart="324.00" from="AO5AO4" to="AN8AO8"/>
    <trip id="325" depart="325.00" from="AG17AH17" to="AC18AB18"/>
    <trip id="326" depart="326.00" from="BC9BC10" to="AP12AP11"/>
    <trip id="327" depart="327.00" from="AZ20AZ21" to="AM3AM4"/>
    <trip id="328" depart="328.00" from="AC9AB9" to="AT26AT27"/>
    <trip id="329" depart="329.00" from="AC1AB1" to="AF16AF15"/>
    <trip id="330" depart="330.00" from="AR26AS26" to="AJ6AI6"/>
    <trip id="331" depart="331.00" from="BE3BD3" to="AE18AE17"/>
    <trip id="332" depart="332.00" from="AX28AW28" to="AS8AS7"/>
    <trip id="333" depart="333.00" from="AY22AX22" to="AH23AH24"/>
    <trip id="334" depart="334.00" from="AQ20AR20" to="AO17AO16"/>
    <trip id="335" depart="335.00" from="AO10AP10" to="BA24BA25"/>
    <trip id="336" depart="336.00" from="BE25BE26" to="AJ7AJ8"/>
    <trip id="337" depart="337.00" from="AT1AT28" to="AT11AS11"/>
    <trip id="338" depart="338.00" from="AW8AW9" to="BD14BE14"/>
    <trip id="339" depart="339.00" from="AG9AG8" to="AH12AH11"/>
    <trip id="340" depart="340.00" from="AU24AV24" to="AF21AG21"/>
    <trip id="341" depart="341.00" from="AF9AE9" to="AD10AC10"/>
    <trip id="342" depart="342.00" from="A1AB17" to="AO17AO16"/>
    <trip id="343" depart="343.00" from="AS24AT24" to="AJ22AJ23"/>
    <trip id="344" depart="344.00" from="AH28AH1" to="AV8AW8"/>
    <trip id="345" depart="345.00" from="AV5AV6" to="AO1AO2"/>
    <trip id="346" depart="346.00" from="AV1AV2" to="BC22BB22"/>
    <trip id="347" depart="347.00" from="AY1AZ1" to="AT23AS23"/>
    <trip id="348" depart="348.00" from="AU25AU24" to="BC3BC2"/>
    <trip id="349" depart="349.00" from="AN23AM23" to="AR12AR11"/>
    <trip id="350" depart="350.00" from="AU15AT15" to="BC10BB10"/>
    <trip id="351" depart="351.00" from="AZ24AZ23" to="AC6AD6"/>
    <trip id="352" depart="352.00" from="AF2AF1" to="AJ9AJ10"/>
    <trip id="353" depart="353.00" from="AX16AW16" to="AR5AQ5"/>
    <trip id="354" depart="354.00" from="AJ20AJ19" to="AE22AE21"/>
    <trip id="355" depart="355.00" from="AV20AV19" to="AV2AW2"/>
    <trip id="356" depart="356.00" from="BD10BE10" to="AP3AP2"/>
    <trip id="357" depart="357.00" from="AP24AQ24" to="AD14AD15"/>
    <trip id="358" depart="358.00" from="AB8AB7" to="AN28AO28"/>
    <trip id="359" depart="359.00" from="AK20AL20" to="AI17AI16"/>
    <trip id="360" depart="360.00" from="AD22AD23" to="BD26BC26"/>
    <trip id="361" depart="361.00" from="AZ5AY5" to="AS10AR10"/>
    <trip id="362" depart="362.00" from="BD17BD18" to="BE9BE10"/>
    <trip id="363" depart="363.00" from="AU7AU8" to="AI5AI4"/>
    <trip id="364" depart="364.00" from="AB8AC8" to="AX21AX20"/>
    <trip id="365" depart="365.00" from="AO6AN6" to="AU18AU17"/>
    <trip id="366" depart="366.00" from="BC16BC17" to="AG15AG14"/>
    <trip id="367" depart="367.00" from="AS18AS19" to="AT4AS4"/>
    <trip id="368" depart="368.00" from="AP23AO23" to="AD22AD23"/>
    <trip id="369" depart="369.00" from="AL15AL14" to="AK2AL2"/>
    <trip id="370" depart="370.00" from="AU5AV5" to="BA22BA21"/>
    <trip id="371" depart="371.00" from="AK27AJ27" to="AV24AV25"/>
    <trip id="372" depart="372.00" from="AJ20AI20" to="BD12BE12"/>
    <trip id="373" depart="373.00" from="AZ14AZ13" to="AR17AQ17"/>
    <trip id="374" depart="374.00" from="AO20AN20" to="AK15AJ15"/>
    <trip id="375" depart="375.00" from="AK21AK22" to="BD5BE5"/>
    <trip id="376" depart="376.00" from="AM6AM7" to="AQ15AQ14"/>
    <trip id="377" depart="377.00" from="BE23BE24" to="AU22AU21"/>
    <trip id="378" depart="378.00" from="AR10AS10" to="AN14AM14"/>
    <trip id="379" depart="379.00" from="AG1AG28" to="AL25AM25"/>
    <trip id="380" depart="380.00" from="AX21AX20" to="AT23AT22"/>
    <trip id="381" depart="381.00" from="AX24AX23" to="AG5AH5"/>
    <trip id="382" depart="382.00" from="AR16AR15" to="BC25BB25"/>
    <trip id="383" depart="383.00" from="AN7AM7" to="AV28AV27"/>
    <trip id="384" depart="384.00" from="AE1AF1" to="BD8BD7"/>
    <trip id="385" depart="385.00" from="AT10AT11" to="AH8AG8"/>
    <trip id="386" depart="386.00" from="AF23AE23" to="AR17AR18"/>
    <trip id="387" depart="387.00" from="AR18AS18" to="AD24AD23"/>
    <trip id="388" depart="388.00" from="BE28BD28" to="BC13BD13"/>
    <trip id="389" depart="389.00" from="AO25AO26" to="AE17AE18"/>
    <trip id="390" depart="390.00" from="AZ2AY2" to="AP28AP27"/>
    <trip id="391" depart="391.00" from="AW16AX16" to="AQ10AQ11"/>
    <trip id="392" depart="392.00" from="AI8AI9" to="AZ4AY4"/>
    <trip id="393" depart="393.00" from="BE15BE16" to="AI11AI12"/>
    <trip id="394" depart="394.00" from="AR18AQ18" to="AM17AL17"/>
    <trip id="395" depart="395.00" from="BC20BC19" to="AP9AQ9"/>
    <trip id="396" depart="396.00" from="BB13BB14" to="BA27BB27"/>
    <trip id="397" depart="397.00" from="AJ11AI11" to="AY21AY22"/>
    <trip id="398" depart="398.00" from="AN15AN16" to="BC3BD3"/>
    <trip id="399" depart="399.00" from="AP9AP10" to="AZ1AZ2"/>
    <trip id="400" depart="400.00" from="AJ16AJ17" to="AJ28AK28"/>
    <trip id="401" depart="401.00" from="AS1AR1" to="BE8BE9"/>
    <trip id="402" depart="402.00" from="AP21AP20" to="AF15AG15"/>
    <trip id="403" depart="403.00" from="AQ7AQ6" to="AL12AM12"/>
    <trip id="404" depart="404.00" from="AR18AR19" to="AR11AR10"/>
    <trip id="405" depart="405.00" from="AO20AO19" to="AK20AK19"/>
    <trip id="406" depart="406.00" from="AG20AG19" to="AV27AW27"/>
    <trip id="407" depart="407.00" from="AR7AR6" to="AH3AG3"/>
    <trip id="408" depart="408.00" from="AY10AY11" to="AC11AC12"/>
    <trip id="409" depart="409.00" from="AX12AX13" to="AV7AV6"/>
    <trip id="410" depart="410.00" from="AZ12AZ13" to="AM19AM18"/>
    <trip id="411" depart="411.00" from="AU27AU26" to="AZ1AZ2"/>
    <trip id="412" depart="412.00" from="BE16BE15" to="AP26AO26"/>
    <trip id="413" depart="413.00" from="AB6A1" to="AP4AQ4"/>
    <trip id="414" depart="414.00" from="AS21AT21" to="BA5BA6"/>
    <trip id="415" depart="415.00" from="BA9BA10" to="AN8AO8"/>
    <trip id="416" depart="416.00" from="AQ23AR23" to="AO21AP21"/>
    <trip id="417" depart="417.00" from="AW20AX20" to="AN11AN10"/>
    <trip id="418" depart="418.00" from="AU20AT20" to="AF1AF28"/>
    <trip id="419" depart="419.00" from="AO5AO4" to="BD5BC5"/>
    <trip id="420" depart="420.00" from="AK7AK6" to="AV23AW23"/>
    <trip id="421" depart="421.00" from="AU16AV16" to="BA18BA17"/>
    <trip id="422" depart="422.00" from="BA18BB18" to="BA23BB23"/>
    <trip id="423" depart="423.00" from="AM14AL14" to="AK16AL16"/>
    <trip id="424" depart="424.00" from="AW18AW19" to="AX23AY23"/>
    <trip id="425" depart="425.00" from="BA7BB7" to="AB5A1"/>
    <trip id="426" depart="426.00" from="AC4AC3" to="AT28AS28"/>
    <trip id="427" depart="427.00" from="BC1BC28" to="BE7BD7"/>
    <trip id="428" depart="428.00" from="AX14AX13" to="AN3AN4"/>
    <trip id="429" depart="429.00" from="AD28AD27" to="AT3AT2"/>
    <trip id="430" depart="430.00" from="BA7BB7" to="AO11AO12"/>
    <trip id="431" depart="431.00" from="AV24AW24" to="BB5BC5"/>
    <trip id="432" depart="432.00" from="AC13AC14" to="AY26AZ26"/>
    <trip id="433" depart="433.00" from="AJ24AJ23" to="AL9AM9"/>
    <trip id="434" depart="434.00" from="AF13AF12" to="AQ28AP28"/>
    <trip id="435" depart="435.00" from="AR2AR1" to="AY23AY24"/>
    <trip id="436" depart="436.00" from="AF5AG5" to="AD13AD12"/>
    <trip id="437" depart="437.00" from="BA6BA7" to="AT19AT20"/>
    <trip id="438" depart="438.00" from="AH9AH10" to="BC13BD13"/>
    <trip id="439" depart="439.00" from="AF11AE11" to="AO25AO24"/>
    <trip id="440" depart="440.00" from="AI1AI2" to="AI20AI19"/>
    <trip id="441" depart="441.00" from="AB10AC10" to="AY6AZ6"/>
    <trip id="442" depart="442.00" from="BB4BA4" to="AV12AU12"/>
    <trip id="443" depart="443.00" from="AF22AF23" to="AO10AN10"/>
    <trip id="444" depart="444.00" from="AL13AL12" to="AS1AS28"/>
    <trip id="445" depart="445.00" from="AT7AT8" to="AN22AN21"/>
    <trip id="446" depart="446.00" from="AI17AH17" to="BA13AZ13"/>
    <trip id="447" depart="447.00" from="AG2AG1" to="AM18AL18"/>
    <trip id="448" depart="448.00" from="AP16AQ16" to="AH6AH5"/>
    <trip id="449" depart="449.00" from="AR7AR6" to="AR9AS9"/>
    <trip id="450" depart="450.00" from="BE28BE27" to="AJ25AK25"/>
    <trip id="451" depart="451.00" from="BE13BD13" to="AU22AV22"/>
    <trip id="452" depart="452.00" from="AI9AI8" to="AR2AR1"/>
    <trip id="453" depart="453.00" from="AV19AU19" to="AX12AX13"/>
    <trip id="454" depart="454.00" from="AC16AB16" to="AS8AS7"/>