<?xml version="1.0" encoding="UTF-8"?>

<!-- generated on 12/10/20 11:06:52 by Eclipse SUMO duarouter Version 1.8.0
<configuration xmlns:xsi="http://www.w3.org/2001/XMLSchema-instance" xsi:noNamespaceSchemaLocation="http://sumo.dlr.de/xsd/duarouterConfiguration.xsd">

    <input>
        <net-file value="spidertest.net.xml"/>
        <route-files value="spidertest.trips.xml"/>
    </input>

    <output>
        <output-file value="spidertest.rou.xml"/>
        <alternatives-output value="spidertest.rou.alt.xml"/>
    </output>

    <report>
        <ignore-errors value="true"/>
    </report>

</configuration>
-->

<routes xmlns:xsi="http://www.w3.org/2001/XMLSchema-instance" xsi:noNamespaceSchemaLocation="http://sumo.dlr.de/xsd/routes_file.xsd">
    <vehicle id="0" depart="0.00">
        <route edges="AT8AS8 AS8AR8 AR8AQ8 AQ8AP8 AP8AO8 AO8AN8 AN8AM8 AM8AL8 AL8AK8 AK8AJ8 AJ8AI8 AI8AH8 AH8AG8 AG8AF8 AF8AE8 AE8AD8 AD8AC8 AC8AB8 AB8A1 A1AB23 AB23A1"/>
    </vehicle>
    <vehicle id="1" depart="1.00">
        <route edges="AJ10AI10 AI10AH10 AH10AG10 AG10AF10 AF10AE10 AE10AD10 AD10AC10 AC10AB10 AB10A1 A1AB21 AB21AC21 AC21AD21 AD21AE21 AE21AF21 AF21AG21 AG21AH21 AH21AH20"/>
    </vehicle>
    <vehicle id="2" depart="2.00">
        <route edges="AW5AW6 AW6AV6 AV6AV7 AV7AV8 AV8AV9 AV9AV10 AV10AV11 AV11AV10"/>
    </vehicle>
    <vehicle id="3" depart="3.00">
        <route edges="BB23BB22 BB22BA22 BA22AZ22 AZ22AY22 AY22AX22 AX22AW22 AW22AV22 AV22AU22 AU22AT22 AT22AS22 AS22AR22 AR22AQ22 AQ22AP22 AP22AO22 AO22AN22 AN22AM22 AM22AL22 AL22AK22 AK22AJ22 AJ22AI22 AI22AH22 AH22AG22 AG22AF22 AF22AE22 AE22AD22 AD22AD23 AD23AD24 AD24AD25 AD25AD26 AD26AD27 AD27AD28 AD28AD1 AD1AC1"/>
    </vehicle>
    <vehicle id="4" depart="4.00">
        <route edges="AN20AN19 AN19AM19 AM19AL19 AL19AK19 AK19AJ19 AJ19AI19 AI19AH19 AH19AG19 AG19AF19 AF19AE19 AE19AD19 AD19AC19 AC19AB19 AB19A1 A1AB27 AB27A1"/>
    </vehicle>
    <vehicle id="5" depart="5.00">
        <route edges="AH18AH19 AH19AG19 AG19AF19 AF19AE19 AE19AD19 AD19AC19 AC19AB19 AB19A1 A1AB7 AB7AC7 AC7AD7 AD7AE7 AE7AF7 AF7AG7 AG7AH7 AH7AI7 AI7AJ7 AJ7AK7 AK7AL7 AL7AM7 AM7AN7 AN7AO7 AO7AP7 AP7AP6"/>
    </vehicle>
    <vehicle id="6" depart="6.00">
        <route edges="AB24AB23 AB23A1 A1AB2 AB2AC2 AC2AD2 AD2AE2 AE2AF2 AF2AG2 AG2AF2"/>
    </vehicle>
    <vehicle id="7" depart="7.00">
        <route edges="AU16AV16 AV16AU16 AU16AT16 AT16AS16 AS16AR16 AR16AR15 AR15AR14 AR14AR13 AR13AR12 AR12AS12"/>
    </vehicle>
    <vehicle id="8" depart="8.00">
        <route edges="AH1AG1 AG1AF1 AF1AE1 AE1AD1 AD1AC1 AC1AB1 AB1A1 A1AB20 AB20AC20 AC20AD20 AD20AE20 AE20AF20 AF20AG20 AG20AH20 AH20AI20 AI20AJ20 AJ20AK20 AK20AL20 AL20AM20 AM20AN20 AN20AO20 AO20AP20 AP20AQ20 AQ20AR20 AR20AS20 AS20AT20"/>
    </vehicle>
    <vehicle id="9" depart="9.00">
        <route edges="AZ10BA10 BA10AZ10 AZ10AY10 AY10AX10 AX10AW10 AW10AV10 AV10AU10 AU10AT10 AT10AS10 AS10AR10 AR10AQ10 AQ10AP10 AP10AO10 AO10AN10 AN10AM10 AM10AL10 AL10AK10 AK10AJ10 AJ10AI10 AI10AH10 AH10AG10 AG10AF10 AF10AE10 AE10AD10 AD10AC10 AC10AB10 AB10A1 A1AB3"/>
    </vehicle>
    <vehicle id="10" depart="10.00">
        <route edges="AY7AZ7 AZ7AY7 AY7AX7 AX7AW7 AW7AV7 AV7AV6 AV6AV5 AV5AV4 AV4AV3 AV3AV2 AV2AV1 AV1AV28 AV28AV1"/>
    </vehicle>
    <vehicle id="11" depart="11.00">
        <route edges="AK8AL8 AL8AK8 AK8AJ8 AJ8AI8 AI8AH8 AH8AG8 AG8AF8 AF8AE8 AE8AD8 AD8AC8 AC8AB8 AB8A1 A1AB20 AB20AC20 AC20AD20 AD20AE20 AE20AF20 AF20AF21"/>
    </vehicle>
    <vehicle id="12" depart="12.00">
        <route edges="BD22BC22 BC22BB22 BB22BA22 BA22AZ22 AZ22AY22 AY22AX22 AX22AW22 AW22AV22 AV22AU22 AU22AT22 AT22AS22 AS22AR22 AR22AQ22 AQ22AP22 AP22AO22 AO22AN22 AN22AM22 AM22AL22 AL22AK22 AK22AJ22 AJ22AI22 AI22AH22 AH22AG22 AG22AF22 AF22AE22 AE22AD22 AD22AC22 AC22AB22 AB22A1 A1AB5 AB5AC5 AC5AD5 AD5AE5 AE5AF5 AF5AG5 AG5AH5 AH5AI5 AI5AJ5 AJ5AK5 AK5AK6"/>
    </vehicle>
    <vehicle id="13" depart="13.00">
        <route edges="AD23AE23 AE23AD23 AD23AD24 AD24AD25 AD25AD26 AD26AD27 AD27AC27"/>
    </vehicle>
    <vehicle id="14" depart="14.00">
        <route edges="BA14BB14 BB14BA14 BA14AZ14 AZ14AY14 AY14AX14 AX14AW14 AW14AV14 AV14AU14 AU14AT14 AT14AS14 AS14AS13 AS13AS12 AS12AS11 AS11AS10 AS10AS9 AS9AS8 AS8AS7 AS7AS6 AS6AR6"/>
    </vehicle>
    <vehicle id="15" depart="15.00">
        <route edges="AY8AZ8 AZ8AY8 AY8AX8 AX8AW8 AW8AV8 AV8AU8 AU8AT8 AT8AS8 AS8AR8 AR8AQ8 AQ8AP8 AP8AO8 AO8AN8 AN8AM8 AM8AL8 AL8AK8 AK8AJ8 AJ8AI8 AI8AH8 AH8AG8 AG8AF8 AF8AE8 AE8AD8 AD8AC8 AC8AB8 AB8A1 A1AB26 AB26AC26 AC26AD26 AD26AE26 AE26AF26 AF26AG26 AG26AH26 AH26AI26 AI26AJ26 AJ26AK26 AK26AL26 AL26AM26 AM26AN26 AN26AO26 AO26AP26 AP26AQ26 AQ26AR26 AR26AS26 AS26AT26 AT26AU26 AU26AV26 AV26AW26 AW26AX26"/>
    </vehicle>
    <vehicle id="16" depart="16.00">
        <route edges="AQ5AQ4 AQ4AQ5 AQ5AQ6 AQ6AQ7 AQ7AQ8 AQ8AR8 AR8AS8 AS8AT8 AT8AU8 AU8AV8 AV8AW8 AW8AX8 AX8AY8 AY8AZ8 AZ8BA8 BA8BB8 BB8BC8 BC8BD8 BD8BD7"/>
    </vehicle>
    <vehicle id="17" depart="17.00">
        <route edges="AM12AN12 AN12AN13 AN13AN14 AN14AN15 AN15AN16 AN16AN17 AN17AN18 AN18AO18 AO18AP18 AP18AQ18 AQ18AR18 AR18AR19"/>
    </vehicle>
    <vehicle id="18" depart="18.00">
        <route edges="AZ26AZ27 AZ27AY27 AY27AX27 AX27AW27 AW27AV27 AV27AU27 AU27AT27 AT27AS27 AS27AR27 AR27AQ27 AQ27AP27 AP27AO27 AO27AN27 AN27AM27 AM27AL27 AL27AK27 AK27AJ27 AJ27AI27 AI27AH27 AH27AG27 AG27AF27 AF27AE27 AE27AD27 AD27AC27 AC27AB27 AB27A1 A1AB18 AB18AC18 AC18AD18 AD18AE18 AE18AF18 AF18AG18 AG18AH18 AH18AI18 AI18AJ18 AJ18AK18 AK18AL18 AL18AM18 AM18AN18 AN18AO18 AO18AP18 AP18AQ18 AQ18AR18 AR18AS18 AS18AT18 AT18AT19"/>
    </vehicle>
    <vehicle id="19" depart="19.00">
        <route edges="BA25BB25 BB25BA25 BA25AZ25 AZ25AY25 AY25AX25 AX25AW25 AW25AV25 AV25AU25 AU25AT25 AT25AS25 AS25AR25 AR25AQ25 AQ25AP25 AP25AO25 AO25AN25 AN25AM25 AM25AL25 AL25AK25 AK25AJ25 AJ25AI25 AI25AH25 AH25AG25 AG25AF25 AF25AE25 AE25AD25 AD25AC25 AC25AB25 AB25A1 A1AB11 AB11AC11 AC11AD11 AD11AE11 AE11AF11 AF11AG11 AG11AH11 AH11AI11 AI11AJ11 AJ11AK11 AK11AL11 AL11AM11 AM11AN11 AN11AO11 AO11AP11 AP11AQ11 AQ11AR11 AR11AS11 AS11AT11"/>
    </vehicle>
    <vehicle id="20" depart="20.00">
        <route edges="AV6AW6 AW6AV6 AV6AU6 AU6AT6 AT6AS6 AS6AR6 AR6AQ6 AQ6AP6 AP6AO6 AO6AN6 AN6AM6 AM6AL6 AL6AK6 AK6AJ6 AJ6AI6 AI6AH6 AH6AG6 AG6AF6 AF6AE6 AE6AD6 AD6AC6 AC6AC7 AC7AC8 AC8AC9 AC9AC10 AC10AC11 AC11AC12 AC12AC13 AC13AC12"/>
    </vehicle>
    <vehicle id="21" depart="21.00">
        <route edges="AH25AH24 AH24AH23 AH23AH22 AH22AH21 AH21AI21 AI21AJ21 AJ21AI21"/>
    </vehicle>
    <vehicle id="22" depart="22.00">
        <route edges="AD14AC14 AC14AB14 AB14A1 A1AB2 AB2AC2 AC2AD2 AD2AE2 AE2AF2 AF2AG2 AG2AH2 AH2AH3"/>
    </vehicle>
    <vehicle id="23" depart="23.00">
        <route edges="AD3AE3 AE3AD3 AD3AC3 AC3AB3 AB3A1 A1AB12 AB12AC12 AC12AD12 AD12AE12 AE12AF12 AF12AG12 AG12AH12 AH12AI12 AI12AJ12 AJ12AJ11"/>
    </vehicle>
    <vehicle id="24" depart="24.00">
        <route edges="AT4AU4 AU4AT4 AT4AS4 AS4AR4 AR4AQ4 AQ4AP4 AP4AO4 AO4AN4 AN4AM4 AM4AL4 AL4AL3 AL3AL2 AL2AL1 AL1AL28 AL28AL1"/>
    </vehicle>
    <vehicle id="25" depart="25.00">
        <route edges="AL5AM5 AM5AL5 AL5AK5 AK5AJ5 AJ5AI5 AI5AH5 AH5AH6 AH6AH7 AH7AH8 AH8AH9 AH9AH10 AH10AI10"/>
    </vehicle>
    <vehicle id="26" depart="26.00">
        <route edges="AI3AI2 AI2AI3 AI3AI4 AI4AI5 AI5AJ5 AJ5AK5 AK5AL5 AL5AM5 AM5AN5 AN5AO5 AO5AP5 AP5AQ5 AQ5AR5 AR5AS5 AS5AT5 AT5AU5 AU5AV5 AV5AW5 AW5AX5 AX5AY5 AY5AZ5 AZ5BA5 BA5BB5 BB5BC5 BC5BD5"/>
    </vehicle>
    <vehicle id="27" depart="27.00">
        <route edges="AU15AU14 AU14AT14 AT14AT13 AT13AT12 AT12AT11 AT11AT10 AT10AT9"/>
    </vehicle>
    <vehicle id="28" depart="28.00">
        <route edges="AF6AG6 AG6AG5 AG5AG4 AG4AG3 AG3AG2 AG2AG1 AG1AG28 AG28AG27 AG27AG26 AG26AH26 AH26AI26 AI26AJ26 AJ26AK26 AK26AL26 AL26AM26 AM26AN26 AN26AO26 AO26AP26 AP26AQ26 AQ26AR26 AR26AS26 AS26AT26 AT26AU26 AU26AV26 AV26AW26 AW26AW25"/>
    </vehicle>
    <vehicle id="29" depart="29.00">
        <route edges="AF27AF26 AF26AE26 AE26AD26 AD26AC26 AC26AB26 AB26A1 A1AB13 AB13AC13 AC13AD13 AD13AE13 AE13AF13 AF13AG13 AG13AH13 AH13AI13 AI13AJ13 AJ13AK13 AK13AL13 AL13AM13 AM13AM14"/>
    </vehicle>
    <vehicle id="30" depart="30.00">
        <route edges="BE25BD25 BD25BC25 BC25BB25 BB25BA25 BA25AZ25 AZ25AY25 AY25AX25 AX25AW25 AW25AV25 AV25AU25 AU25AT25 AT25AS25 AS25AR25 AR25AQ25 AQ25AP25 AP25AO25 AO25AN25 AN25AM25 AM25AL25 AL25AK25 AK25AJ25 AJ25AI25 AI25AH25 AH25AG25 AG25AF25 AF25AE25 AE25AD25 AD25AC25 AC25AB25 AB25A1 A1AB8 AB8AC8 AC8AD8 AD8AE8 AE8AF8 AF8AG8 AG8AH8 AH8AI8 AI8AJ8 AJ8AK8 AK8AL8 AL8AM8 AM8AN8 AN8AO8 AO8AP8 AP8AQ8 AQ8AR8 AR8AS8 AS8AT8 AT8AT9"/>
    </vehicle>
    <vehicle id="31" depart="31.00">
        <route edges="AR21AS21 AS21AS20 AS20AS19 AS19AS18 AS18AT18 AT18AU18 AU18AV18 AV18AU18"/>
    </vehicle>
    <vehicle id="32" depart="32.00">
        <route edges="BA10BB10 BB10BA10 BA10AZ10 AZ10AY10 AY10AZ10"/>
    </vehicle>
    <vehicle id="33" depart="33.00">
        <route edges="AH26AH25 AH25AG25 AG25AF25 AF25AE25 AE25AD25 AD25AC25 AC25AB25 AB25AB26 AB26AB27 AB27AB28 AB28AC28"/>
    </vehicle>
    <vehicle id="34" depart="34.00">
        <route edges="AK15AL15 AL15AK15 AK15AJ15 AJ15AI15 AI15AH15 AH15AG15 AG15AF15 AF15AE15 AE15AD15 AD15AC15 AC15AB15 AB15A1 A1AB3 AB3AC3 AC3AD3 AD3AE3 AE3AF3 AF3AG3 AG3AH3 AH3AI3 AI3AJ3"/>
    </vehicle>
    <vehicle id="35" depart="35.00">
        <route edges="AH12AG12 AG12AG11 AG11AH11 AH11AI11 AI11AJ11 AJ11AK11 AK11AL11 AL11AM11 AM11AN11 AN11AO11 AO11AP11 AP11AQ11 AQ11AR11 AR11AS11 AS11AT11 AT11AU11 AU11AV11 AV11AW11 AW11AX11 AX11AY11 AY11AZ11 AZ11BA11 BA11BB11 BB11BC11 BC11BD11 BD11BC11"/>
    </vehicle>
    <vehicle id="36" depart="36.00">
        <route edges="BB11BA11 BA11AZ11 AZ11AY11 AY11AX11 AX11AW11 AW11AV11 AV11AU11 AU11AT11 AT11AS11 AS11AR11 AR11AQ11 AQ11AP11 AP11AO11 AO11AN11 AN11AM11 AM11AL11 AL11AK11 AK11AK12 AK12AK13 AK13AK14 AK14AK15 AK15AK14"/>
    </vehicle>
    <vehicle id="37" depart="37.00">
        <route edges="AU20AU21 AU21AT21 AT21AS21 AS21AR21 AR21AQ21 AQ21AP21 AP21AO21 AO21AN21 AN21AM21 AM21AM22 AM22AM23 AM23AM24 AM24AM25 AM25AM26 AM26AM25"/>
    </vehicle>
    <vehicle id="38" depart="38.00">
        <route edges="BC15BB15 BB15BA15 BA15AZ15 AZ15AY15 AY15AX15 AX15AW15 AW15AV15 AV15AU15 AU15AT15 AT15AS15 AS15AR15 AR15AQ15 AQ15AP15 AP15AO15 AO15AO16 AO16AO17 AO17AO18 AO18AO19 AO19AO20 AO20AO21 AO21AO22 AO22AO23 AO23AO22"/>
    </vehicle>
    <vehicle id="39" depart="39.00">
        <route edges="AI28AI1 AI1AH1 AH1AG1 AG1AF1 AF1AE1 AE1AD1 AD1AC1 AC1AB1 AB1A1 A1AB14 AB14AC14 AC14AD14 AD14AE14 AE14AF14 AF14AG14 AG14AH14 AH14AI14 AI14AH14"/>
    </vehicle>
    <vehicle id="40" depart="40.00">
        <route edges="AR25AR26 AR26AQ26 AQ26AP26 AP26AO26 AO26AN26 AN26AM26 AM26AL26 AL26AK26 AK26AJ26 AJ26AI26 AI26AI27"/>
    </vehicle>
    <vehicle id="41" depart="41.00">
        <route edges="AS18AR18 AR18AQ18 AQ18AP18 AP18AO18 AO18AN18 AN18AM18 AM18AL18 AL18AK18 AK18AJ18 AJ18AI18 AI18AH18 AH18AG18 AG18AF18 AF18AE18 AE18AD18 AD18AC18 AC18AB18 AB18A1 A1AB28 AB28AC28 AC28AD28 AD28AE28 AE28AF28 AF28AG28 AG28AH28 AH28AI28 AI28AJ28 AJ28AK28 AK28AL28 AL28AM28 AM28AN28 AN28AO28 AO28AP28 AP28AQ28 AQ28AR28 AR28AS28 AS28AT28 AT28AU28 AU28AV28 AV28AW28 AW28AX28 AX28AY28 AY28AZ28 AZ28BA28 BA28BB28 BB28BA28"/>
    </vehicle>
    <vehicle id="42" depart="42.00">
        <route edges="AM2AM1 AM1AL1 AL1AK1 AK1AJ1 AJ1AI1 AI1AH1 AH1AG1 AG1AF1 AF1AE1 AE1AD1 AD1AC1 AC1AB1 AB1A1 A1AB19 AB19AC19 AC19AD19 AD19AE19 AE19AF19 AF19AG19 AG19AH19 AH19AG19"/>
    </vehicle>
    <vehicle id="43" depart="43.00">
        <route edges="BE7BD7 BD7BC7 BC7BB7 BB7BA7 BA7AZ7 AZ7AY7 AY7AX7 AX7AW7 AW7AV7 AV7AU7 AU7AT7 AT7AS7 AS7AR7 AR7AQ7 AQ7AQ8 AQ8AQ9 AQ9AQ10 AQ10AQ11 AQ11AP11"/>
    </vehicle>
    <vehicle id="44" depart="44.00">
        <route edges="AD22AD21 AD21AC21 AC21AC20 AC20AC19 AC19AC18 AC18AC17 AC17AC16 AC16AC15 AC15AC14 AC14AC15"/>
    </vehicle>
    <vehicle id="45" depart="45.00">
        <route edges="AE11AD11 AD11AC11 AC11AB11 AB11A1 A1AB25 AB25AC25 AC25AD25 AD25AE25 AE25AF25 AF25AG25 AG25AH25 AH25AI25 AI25AJ25 AJ25AK25 AK25AL25 AL25AM25 AM25AN25 AN25AO25 AO25AP25 AP25AQ25 AQ25AR25 AR25AS25 AS25AT25 AT25AS25"/>
    </vehicle>
    <vehicle id="46" depart="46.00">
        <route edges="AY23AY22 AY22AX22 AX22AW22 AW22AV22 AV22AU22 AU22AT22 AT22AS22 AS22AR22 AR22AQ22 AQ22AP22 AP22AO22 AO22AN22 AN22AN21 AN21AN20 AN20AN21"/>
    </vehicle>
    <vehicle id="47" depart="47.00">
        <route edges="AC27AC26 AC26AB26 AB26A1 A1AB15 AB15AC15 AC15AD15 AD15AE15 AE15AF15 AF15AG15 AG15AH15 AH15AI15 AI15AJ15 AJ15AK15 AK15AL15 AL15AM15 AM15AM16"/>
    </vehicle>
    <vehicle id="48" depart="48.00">
        <route edges="BE5BE4 BE4BD4 BD4BC4 BC4BB4 BB4BA4 BA4AZ4 AZ4AY4 AY4AX4 AX4AW4 AW4AV4 AV4AU4 AU4AT4 AT4AS4 AS4AR4 AR4AQ4 AQ4AQ3 AQ3AQ2 AQ2AQ1 AQ1AQ28 AQ28AQ27 AQ27AQ26 AQ26AQ25"/>
    </vehicle>
    <vehicle id="49" depart="49.00">
        <route edges="BD6BD7 BD7BC7 BC7BB7 BB7BA7 BA7AZ7 AZ7AY7 AY7AX7 AX7AW7 AW7AV7 AV7AU7 AU7AT7 AT7AS7 AS7AR7 AR7AQ7 AQ7AP7 AP7AO7 AO7AN7 AN7AM7 AM7AL7 AL7AK7 AK7AJ7 AJ7AI7 AI7AH7 AH7AG7 AG7AF7 AF7AE7 AE7AD7 AD7AC7 AC7AB7 AB7A1 A1AB25 AB25AC25 AC25AD25 AD25AE25 AE25AF25 AF25AG25 AG25AH25 AH25AI25 AI25AJ25 AJ25AK25 AK25AL25 AL25AM25 AM25AN25 AN25AO25 AO25AP25 AP25AQ25 AQ25AR25 AR25AS25 AS25AT25 AT25AU25 AU25AV25 AV25AW25 AW25AX25 AX25AY25 AY25AZ25 AZ25BA25 BA25AZ25"/>
    </vehicle>
    <vehicle id="50" depart="50.00">
        <route edges="AB12AB13 AB13A1 A1AB1 AB1AC1 AC1AD1 AD1AE1 AE1AF1 AF1AG1 AG1AH1 AH1AI1 AI1AJ1 AJ1AK1 AK1AL1 AL1AM1 AM1AN1 AN1AO1 AO1AP1 AP1AQ1 AQ1AR1 AR1AS1 AS1AT1 AT1AU1 AU1AV1 AV1AW1 AW1AW2"/>
    </vehicle>
    <vehicle id="51" depart="51.00">
        <route edges="AV15AV16 AV16AU16 AU16AT16 AT16AS16 AS16AR16 AR16AQ16 AQ16AP16 AP16AO16 AO16AN16 AN16AM16 AM16AL16 AL16AK16 AK16AJ16 AJ16AI16 AI16AH16 AH16AG16 AG16AF16 AF16AE16 AE16AD16 AD16AC16 AC16AB16 AB16A1 A1AB6 AB6AC6 AC6AD6 AD6AE6 AE6AF6 AF6AG6 AG6AH6 AH6AI6 AI6AJ6 AJ6AK6 AK6AL6 AL6AM6 AM6AN6 AN6AO6 AO6AP6 AP6AQ6 AQ6AP6"/>
    </vehicle>
    <vehicle id="52" depart="52.00">
        <route edges="AI3AH3 AH3AH4 AH4AH5 AH5AH6 AH6AH7 AH7AH8 AH8AH9 AH9AI9 AI9AJ9 AJ9AK9 AK9AL9 AL9AM9 AM9AN9 AN9AO9 AO9AP9 AP9AQ9 AQ9AR9 AR9AS9 AS9AT9 AT9AT10"/>
    </vehicle>
    <vehicle id="53" depart="53.00">
        <route edges="AE12AE13 AE13AD13 AD13AC13 AC13AB13 AB13A1 A1AB4 AB4AC4 AC4AD4 AD4AE4 AE4AF4 AF4AG4 AG4AH4 AH4AI4 AI4AJ4 AJ4AK4 AK4AL4 AL4AM4 AM4AN4 AN4AM4"/>
    </vehicle>
    <vehicle id="54" depart="54.00">
        <route edges="AO1AN1 AN1AO1 AO1AP1 AP1AQ1 AQ1AR1 AR1AS1 AS1AT1 AT1AU1 AU1AV1 AV1AW1 AW1AX1 AX1AY1 AY1AZ1 AZ1BA1 BA1BB1 BB1BC1 BC1BD1 BD1BC1"/>
    </vehicle>
    <vehicle id="55" depart="55.00">
        <route edges="BB10BB9 BB9BA9 BA9AZ9 AZ9AY9 AY9AX9 AX9AW9 AW9AV9 AV9AU9 AU9AT9 AT9AS9 AS9AR9 AR9AQ9 AQ9AP9 AP9AO9 AO9AN9 AN9AM9 AM9AL9 AL9AK9 AK9AJ9 AJ9AI9 AI9AH9 AH9AG9 AG9AF9 AF9AE9 AE9AD9 AD9AC9 AC9AB9 AB9A1 A1AB27 AB27AC27 AC27AD27 AD27AE27 AE27AF27 AF27AG27 AG27AH27 AH27AI27 AI27AH27"/>
    </vehicle>
    <vehicle id="56" depart="56.00">
        <route edges="AP3AP2 AP2AO2 AO2AN2 AN2AM2 AM2AL2 AL2AK2 AK2AJ2 AJ2AI2 AI2AH2 AH2AG2 AG2AF2 AF2AE2 AE2AD2 AD2AC2 AC2AB2 AB2A1 A1AB13 AB13AC13 AC13AD13 AD13AE13 AE13AF13 AF13AG13 AG13AF13"/>
    </vehicle>
    <vehicle id="57" depart="57.00">
        <route edges="BC13BC14 BC14BB14 BB14BA14 BA14BA13 BA13BA12 BA12BA11 BA11BA10 BA10BA9 BA9BA8 BA8BA7 BA7BA6 BA6AZ6"/>
    </vehicle>
    <vehicle id="58" depart="58.00">
        <route edges="AJ28AJ27 AJ27AJ28 AJ28AJ1 AJ1AJ2 AJ2AJ3 AJ3AJ4 AJ4AJ5 AJ5AJ6 AJ6AJ7 AJ7AK7 AK7AL7 AL7AM7 AM7AN7 AN7AO7 AO7AP7 AP7AQ7 AQ7AR7 AR7AS7 AS7AT7 AT7AT8"/>
    </vehicle>
    <vehicle id="59" depart="59.00">
        <route edges="AT10AT9 AT9AS9 AS9AR9 AR9AQ9 AQ9AP9 AP9AO9 AO9AN9 AN9AM9 AM9AL9 AL9AK9 AK9AJ9 AJ9AI9 AI9AH9 AH9AG9 AG9AF9 AF9AE9 AE9AD9 AD9AC9 AC9AB9 AB9A1 A1AB19 AB19AC19 AC19AD19 AD19AE19 AE19AF19 AF19AF18"/>
    </vehicle>
    <vehicle id="60" depart="60.00">
        <route edges="AX26AX27 AX27AW27 AW27AV27 AV27AU27 AU27AT27 AT27AS27 AS27AR27 AR27AQ27 AQ27AP27 AP27AO27 AO27AN27 AN27AM27 AM27AL27 AL27AK27 AK27AJ27 AJ27AI27 AI27AH27 AH27AG27 AG27AF27 AF27AE27 AE27AD27 AD27AC27 AC27AB27 AB27A1 A1AB8 AB8AC8 AC8AD8 AD8AE8 AE8AF8 AF8AG8 AG8AH8 AH8AI8 AI8AJ8 AJ8AK8 AK8AL8 AL8AM8 AM8AN8 AN8AO8 AO8AP8 AP8AQ8 AQ8AP8"/>
    </vehicle>
    <vehicle id="61" depart="61.00">
        <route edges="AY13AX13 AX13AW13 AW13AV13 AV13AU13 AU13AT13 AT13AS13 AS13AR13 AR13AQ13 AQ13AP13 AP13AO13 AO13AN13 AN13AM13 AM13AL13 AL13AK13 AK13AJ13 AJ13AI13 AI13AH13 AH13AG13 AG13AF13 AF13AE13 AE13AD13 AD13AC13 AC13AB13 AB13A1 A1AB27 AB27AC27 AC27AD27 AD27AE27 AE27AF27 AF27AG27 AG27AH27 AH27AI27 AI27AJ27 AJ27AK27 AK27AL27 AL27AM27 AM27AN27 AN27AO27 AO27AP27 AP27AQ27 AQ27AQ26"/>
    </vehicle>
    <vehicle id="62" depart="62.00">
        <route edges="A1AB10 AB10A1 A1AB22 AB22AC22 AC22AD22 AD22AE22 AE22AF22 AF22AG22 AG22AH22 AH22AI22 AI22AJ22 AJ22AK22 AK22AK21"/>
    </vehicle>
    <vehicle id="63" depart="63.00">
        <route edges="AB19AB18 AB18A1 A1AB26 AB26AC26 AC26AD26 AD26AE26 AE26AF26 AF26AG26 AG26AH26 AH26AI26 AI26AJ26 AJ26AK26 AK26AL26 AL26AM26 AM26AN26 AN26AO26 AO26AP26 AP26AQ26 AQ26AR26 AR26AS26 AS26AT26 AT26AU26 AU26AV26 AV26AW26 AW26AX26 AX26AY26 AY26AZ26 AZ26BA26 BA26BB26 BB26BC26 BC26BC25"/>
    </vehicle>
    <vehicle id="64" depart="64.00">
        <route edges="BB13BA13 BA13AZ13 AZ13AY13 AY13AX13 AX13AW13 AW13AV13 AV13AU13 AU13AT13 AT13AS13 AS13AR13 AR13AQ13 AQ13AP13 AP13AO13 AO13AN13 AN13AM13 AM13AL13 AL13AK13 AK13AJ13 AJ13AI13 AI13AH13 AH13AG13 AG13AF13 AF13AE13 AE13AD13 AD13AC13 AC13AB13 AB13A1 A1AB28 AB28AC28 AC28AD28 AD28AE28 AE28AF28 AF28AG28 AG28AH28 AH28AI28 AI28AJ28 AJ28AK28 AK28AL28 AL28AM28 AM28AN28 AN28AO28 AO28AP28 AP28AQ28 AQ28AR28 AR28AS28 AS28AT28 AT28AU28 AU28AV28 AV28AW28 AW28AX28 AX28AY28 AY28AZ28 AZ28AZ27"/>
    </vehicle>
    <vehicle id="65" depart="65.00">
        <route edges="AJ9AJ10 AJ10AI10 AI10AH10 AH10AG10 AG10AF10 AF10AE10 AE10AD10 AD10AC10 AC10AB10 AB10A1 A1AB22 AB22AC22 AC22AC23"/>
    </vehicle>
    <vehicle id="66" depart="66.00">
        <route edges="BB12BB13 BB13BB14 BB14BC14 BC14BD14 BD14BD13"/>
    </vehicle>
    <vehicle id="67" depart="67.00">
        <route edges="AD18AE18 AE18AE19 AE19AF19 AF19AG19 AG19AH19 AH19AI19 AI19AJ19 AJ19AK19 AK19AL19 AL19AM19 AM19AN19 AN19AO19 AO19AP19 AP19AO19"/>
    </vehicle>
    <vehicle id="68" depart="68.00">
        <route edges="AC5AB5 AB5A1 A1AB24 AB24AC24 AC24AD24 AD24AE24 AE24AF24 AF24AG24 AG24AH24 AH24AI24 AI24AJ24 AJ24AK24 AK24AL24 AL24AM24 AM24AN24 AN24AO24 AO24AP24 AP24AQ24 AQ24AR24 AR24AS24 AS24AT24 AT24AU24 AU24AV24 AV24AW24 AW24AX24 AX24AY24"/>
    </vehicle>
    <vehicle id="69" depart="69.00">
        <route edges="AX2AX1 AX1AW1 AW1AV1 AV1AU1 AU1AT1 AT1AS1 AS1AR1 AR1AQ1 AQ1AP1 AP1AO1 AO1AN1 AN1AM1 AM1AL1 AL1AK1 AK1AJ1 AJ1AI1 AI1AH1 AH1AG1 AG1AF1 AF1AE1 AE1AE28 AE28AE27 AE27AE26 AE26AE25 AE25AF25"/>
    </vehicle>
    <vehicle id="70" depart="70.00">
        <route edges="AP10AO10 AO10AO11 AO11AO12 AO12AO13 AO13AO14 AO14AO15 AO15AO16 AO16AP16 AP16AQ16 AQ16AR16 AR16AS16"/>
    </vehicle>
    <vehicle id="71" depart="71.00">
        <route edges="AI28AI27 AI27AI28 AI28AI1 AI1AI2 AI2AI3 AI3AI4 AI4AI5 AI5AI6 AI6AI7 AI7AJ7 AJ7AK7 AK7AL7 AL7AM7 AM7AN7 AN7AO7 AO7AP7 AP7AQ7 AQ7AR7 AR7AS7 AS7AT7 AT7AU7 AU7AV7 AV7AW7 AW7AX7 AX7AY7 AY7AZ7 AZ7BA7 BA7BB7"/>
    </vehicle>
    <vehicle id="72" depart="72.00">
        <route edges="AN21AN20 AN20AM20 AM20AL20 AL20AK20 AK20AJ20 AJ20AI20 AI20AH20 AH20AH19 AH19AH18 AH18AH17 AH17AH16 AH16AH15 AH15AH14 AH14AH13 AH13AH12 AH12AI12"/>
    </vehicle>
    <vehicle id="73" depart="73.00">
        <route edges="AQ8AP8 AP8AO8 AO8AN8 AN8AM8 AM8AL8 AL8AK8 AK8AJ8 AJ8AI8 AI8AH8 AH8AG8 AG8AF8 AF8AE8 AE8AD8 AD8AC8 AC8AB8 AB8A1 A1AB27 AB27AC27 AC27AD27 AD27AE27 AE27AF27 AF27AG27 AG27AH27 AH27AI27 AI27AJ27 AJ27AK27 AK27AL27 AL27AM27 AM27AN27 AN27AO27 AO27AP27 AP27AQ27 AQ27AR27 AR27AS27 AS27AT27 AT27AU27 AU27AV27 AV27AW27 AW27AV27"/>
    </vehicle>
    <vehicle id="74" depart="74.00">
        <route edges="AG3AH3 AH3AG3 AG3AF3 AF3AE3 AE3AD3 AD3AC3 AC3AB3 AB3A1 A1AB12 AB12AC12 AC12AD12 AD12AE12 AE12AF12 AF12AG12 AG12AH12 AH12AI12 AI12AJ12 AJ12AK12 AK12AL12"/>
    </vehicle>
    <vehicle id="75" depart="75.00">
        <route edges="BE4BE3 BE3BD3 BD3BC3 BC3BB3 BB3BA3 BA3AZ3 AZ3AY3 AY3AX3 AX3AW3 AW3AV3 AV3AU3 AU3AT3 AT3AS3 AS3AR3 AR3AQ3 AQ3AP3 AP3AO3 AO3AN3 AN3AM3 AM3AL3 AL3AK3 AK3AJ3 AJ3AI3 AI3AH3 AH3AG3 AG3AF3 AF3AE3 AE3AD3 AD3AC3 AC3AB3 AB3A1 A1AB16 AB16AC16 AC16AD16 AD16AE16 AE16AF16 AF16AG16 AG16AH16 AH16AI16 AI16AJ16 AJ16AK16 AK16AL16 AL16AM16 AM16AN16 AN16AO16 AO16AP16 AP16AQ16 AQ16AR16 AR16AS16 AS16AT16 AT16AU16 AU16AV16"/>
    </vehicle>
    <vehicle id="76" depart="76.00">
        <route edges="AN7AM7 AM7AL7 AL7AK7 AK7AJ7 AJ7AI7 AI7AH7 AH7AG7 AG7AF7 AF7AE7 AE7AD7 AD7AC7 AC7AB7 AB7A1 A1AB17 AB17AC17 AC17AD17 AD17AE17 AE17AF17 AF17AG17 AG17AH17 AH17AI17 AI17AJ17 AJ17AK17 AK17AL17 AL17AM17 AM17AN17 AN17AO17 AO17AP17 AP17AQ17 AQ17AR17"/>
    </vehicle>
    <vehicle id="77" depart="77.00">
        <route edges="AE1AE28 AE28AE27 AE27AE26 AE26AE25 AE25AE24 AE24AE23 AE23AE22 AE22AF22 AF22AG22 AG22AH22 AH22AH23"/>
    </vehicle>
    <vehicle id="78" depart="78.00">
        <route edges="AK6AL6 AL6AK6 AK6AJ6 AJ6AI6 AI6AH6 AH6AG6 AG6AF6 AF6AE6 AE6AD6 AD6AC6 AC6AB6 AB6A1 A1AB20 AB20AC20 AC20AD20 AD20AE20 AE20AF20 AF20AG20 AG20AH20 AH20AI20 AI20AJ20 AJ20AK20 AK20AL20 AL20AM20 AM20AN20 AN20AO20 AO20AP20 AP20AQ20 AQ20AR20 AR20AS20 AS20AR20"/>
    </vehicle>
    <vehicle id="79" depart="79.00">
        <route edges="AH27AH26 AH26AH25 AH25AH24 AH24AH23 AH23AH22 AH22AH21 AH21AH20 AH20AH19 AH19AI19"/>
    </vehicle>
    <vehicle id="80" depart="80.00">
        <route edges="AC6AC7 AC7AC6 AC6AC5 AC5AC4 AC4AC3 AC3AC2 AC2AC1 AC1AC28 AC28AD28 AD28AE28 AE28AF28 AF28AG28 AG28AH28 AH28AI28 AI28AJ28 AJ28AK28 AK28AL28 AL28AM28 AM28AN28 AN28AO28 AO28AP28 AP28AQ28 AQ28AR28 AR28AS28 AS28AT28 AT28AS28"/>
    </vehicle>
    <vehicle id="81" depart="81.00">
        <route edges="AH26AH25 AH25AG25 AG25AF25 AF25AE25 AE25AD25 AD25AC25 AC25AB25 AB25A1 A1AB7 AB7AC7 AC7AD7 AD7AE7 AE7AF7 AF7AG7 AG7AH7 AH7AI7 AI7AJ7 AJ7AK7 AK7AL7 AL7AM7 AM7AN7 AN7AO7 AO7AP7 AP7AQ7 AQ7AR7 AR7AS7 AS7AT7 AT7AU7 AU7AV7 AV7AW7 AW7AX7 AX7AY7 AY7AZ7 AZ7BA7 BA7BB7 BB7BB8"/>
    </vehicle>
    <vehicle id="82" depart="82.00">
        <route edges="BA24AZ24 AZ24AY24 AY24AX24 AX24AW24 AW24AV24 AV24AU24 AU24AT24 AT24AS24 AS24AR24 AR24AQ24 AQ24AP24 AP24AO24 AO24AN24 AN24AM24 AM24AL24 AL24AK24 AK24AJ24 AJ24AI24 AI24AH24 AH24AG24 AG24AF24 AF24AE24 AE24AD24 AD24AC24 AC24AB24 AB24A1 A1AB6 AB6AC6 AC6AC7"/>
    </vehicle>
    <vehicle id="83" depart="83.00">
        <route edges="AH6AI6 AI6AI5 AI5AI4 AI4AJ4 AJ4AK4 AK4AL4 AL4AM4 AM4AN4 AN4AO4 AO4AP4 AP4AQ4 AQ4AR4 AR4AS4 AS4AT4 AT4AU4 AU4AV4"/>
    </vehicle>
    <vehicle id="84" depart="84.00">
        <route edges="AH14AI14 AI14AH14 AH14AG14 AG14AF14 AF14AE14 AE14AD14 AD14AC14 AC14AB14 AB14A1 A1AB2 AB2AC2 AC2AD2 AD2AE2 AE2AD2"/>
    </vehicle>
    <vehicle id="85" depart="85.00">
        <route edges="BC4BD4 BD4BC4 BC4BB4 BB4BA4 BA4AZ4 AZ4AY4 AY4AX4 AX4AW4 AW4AV4 AV4AU4 AU4AT4 AT4AS4 AS4AR4 AR4AR5 AR5AR6 AR6AR7"/>
    </vehicle>
    <vehicle id="86" depart="86.00">
        <route edges="AO8AN8 AN8AM8 AM8AL8 AL8AK8 AK8AJ8 AJ8AI8 AI8AH8 AH8AG8 AG8AF8 AF8AE8 AE8AD8 AD8AC8 AC8AB8 AB8A1 A1AB18 AB18AC18 AC18AD18 AD18AE18 AE18AF18 AF18AG18 AG18AH18 AH18AI18 AI18AJ18 AJ18AK18 AK18AL18 AL18AM18 AM18AN18 AN18AO18 AO18AP18 AP18AQ18 AQ18AR18 AR18AS18 AS18AT18 AT18AU18 AU18AV18 AV18AW18 AW18AX18 AX18AY18 AY18AX18"/>
    </vehicle>
    <vehicle id="87" depart="87.00">
        <route edges="AY9AY10 AY10AX10 AX10AW10 AW10AV10 AV10AU10 AU10AT10 AT10AS10 AS10AR10 AR10AQ10 AQ10AP10 AP10AO10 AO10AN10 AN10AM10 AM10AL10 AL10AK10 AK10AJ10 AJ10AI10 AI10AH10 AH10AG10 AG10AF10 AF10AE10 AE10AD10 AD10AC10 AC10AB10 AB10A1 A1AB21 AB21AC21 AC21AD21 AD21AE21 AE21AF21 AF21AG21 AG21AH21"/>
    </vehicle>
    <vehicle id="88" depart="88.00">
        <route edges="AD27AD26 AD26AD27 AD27AD28 AD28AE28 AE28AF28 AF28AG28 AG28AH28 AH28AI28 AI28AJ28 AJ28AK28 AK28AL28 AL28AM28 AM28AN28 AN28AM28"/>
    </vehicle>
    <vehicle id="89" depart="89.00">
        <route edges="AN21AO21 AO21AN21 AN21AM21 AM21AL21 AL21AK21 AK21AJ21 AJ21AI21 AI21AH21 AH21AG21 AG21AF21 AF21AE21 AE21AD21 AD21AC21 AC21AB21 AB21A1 A1AB3 AB3AC3 AC3AD3 AD3AE3 AE3AF3 AF3AG3 AG3AH3 AH3AI3 AI3AJ3 AJ3AK3 AK3AL3 AL3AM3 AM3AN3 AN3AO3 AO3AO2"/>
    </vehicle>
    <vehicle id="90" depart="90.00">
        <route edges="AW26AW25 AW25AV25 AV25AU25 AU25AT25 AT25AS25 AS25AR25 AR25AQ25 AQ25AP25 AP25AO25 AO25AN25 AN25AM25 AM25AL25 AL25AK25 AK25AJ25 AJ25AI25 AI25AH25 AH25AG25 AG25AF25 AF25AE25 AE25AD25 AD25AC25 AC25AB25 AB25A1 A1AB8 AB8AC8 AC8AD8 AD8AE8 AE8AF8 AF8AG8 AG8AH8 AH8AI8 AI8AJ8 AJ8AK8 AK8AL8 AL8AM8 AM8AN8 AN8AO8 AO8AP8 AP8AQ8 AQ8AR8 AR8AS8 AS8AT8 AT8AU8 AU8AU9"/>
    </vehicle>
    <vehicle id="91" depart="91.00">
        <route edges="BE1BD1 BD1BC1 BC1BB1 BB1BA1 BA1AZ1 AZ1AY1 AY1AX1 AX1AW1 AW1AV1 AV1AU1 AU1AT1 AT1AS1 AS1AR1 AR1AQ1 AQ1AP1 AP1AO1 AO1AN1 AN1AM1 AM1AL1 AL1AK1 AK1AJ1 AJ1AI1 AI1AH1 AH1AG1 AG1AF1 AF1AE1 AE1AD1 AD1AD28 AD28AD27"/>
    </vehicle>
    <vehicle id="92" depart="92.00">
        <route edges="AM5AL5 AL5AK5 AK5AK6 AK6AK7 AK7AK8 AK8AJ8"/>
    </vehicle>
    <vehicle id="93" depart="93.00">
        <route edges="BA25BB25 BB25BA25 BA25AZ25 AZ25AY25 AY25AX25 AX25AW25 AW25AV25 AV25AU25 AU25AT25 AT25AS25 AS25AR25 AR25AQ25 AQ25AP25 AP25AO25 AO25AN25 AN25AM25 AM25AL25 AL25AK25 AK25AJ25 AJ25AI25 AI25AH25 AH25AG25 AG25AF25 AF25AE25 AE25AD25 AD25AC25 AC25AB25 AB25A1 A1AB15 AB15AC15 AC15AD15 AD15AE15 AE15AF15 AF15AG15 AG15AH15 AH15AI15 AI15AJ15"/>
    </vehicle>
    <vehicle id="94" depart="94.00">
        <route edges="AG21AH21 AH21AH20 AH20AH19 AH19AH18 AH18AH17 AH17AH16 AH16AH15 AH15AI15 AI15AJ15 AJ15AK15 AK15AL15 AL15AM15 AM15AN15 AN15AO15 AO15AP15"/>
    </vehicle>
    <vehicle id="95" depart="95.00">
        <route edges="AN20AN19 AN19AM19 AM19AL19 AL19AK19 AK19AJ19 AJ19AJ18 AJ18AJ17 AJ17AJ16 AJ16AJ15 AJ15AJ14 AJ14AJ13 AJ13AJ12 AJ12AK12"/>
    </vehicle>
    <vehicle id="96" depart="96.00">
        <route edges="AI16AJ16 AJ16AJ17 AJ17AJ18 AJ18AJ19 AJ19AJ20 AJ20AJ21 AJ21AK21 AK21AL21 AL21AM21 AM21AN21 AN21AO21 AO21AP21 AP21AQ21 AQ21AR21 AR21AS21 AS21AT21 AT21AU21 AU21AV21 AV21AW21 AW21AX21 AX21AY21 AY21AZ21 AZ21BA21 BA21BB21 BB21BC21 BC21BC22"/>
    </vehicle>
    <vehicle id="97" depart="97.00">
        <route edges="AO11AN11 AN11AM11 AM11AL11 AL11AK11 AK11AJ11 AJ11AI11 AI11AH11 AH11AG11 AG11AF11 AF11AE11 AE11AD11 AD11AC11 AC11AB11 AB11A1 A1AB25 AB25AC25 AC25AD25 AD25AE25 AE25AF25 AF25AG25 AG25AH25 AH25AI25 AI25AJ25 AJ25AK25 AK25AL25 AL25AM25 AM25AN25 AN25AO25 AO25AP25 AP25AQ25 AQ25AR25 AR25AS25 AS25AT25 AT25AU25 AU25AV25 AV25AW25 AW25AX25 AX25AY25 AY25AZ25 AZ25BA25 BA25BA26"/>
    </vehicle>
    <vehicle id="98" depart="98.00">
        <route edges="AR17AR16 AR16AQ16 AQ16AP16 AP16AO16 AO16AN16 AN16AM16 AM16AL16 AL16AK16 AK16AJ16 AJ16AI16 AI16AH16 AH16AG16 AG16AF16 AF16AE16 AE16AD16 AD16AC16 AC16AC17 AC17AC16"/>
    </vehicle>
    <vehicle id="99" depart="99.00">
        <route edges="BE9BD9 BD9BC9 BC9BB9 BB9BA9 BA9AZ9 AZ9AZ8 AZ8AZ7 AZ7AZ6 AZ6AZ5 AZ5AZ4"/>
    </vehicle>
    <vehicle id="100" depart="100.00">
        <route edges="BD4BE4 BE4BD4 BD4BC4 BC4BC3 BC3BC2 BC2BC1 BC1BC28 BC28BC27 BC27BC26 BC26BC25 BC25BC24 BC24BB24"/>
    </vehicle>
    <vehicle id="101" depart="101.00">
        <route edges="BA15BB15 BB15BA15 BA15AZ15 AZ15AY15 AY15AX15 AX15AW15 AW15AV15 AV15AU15 AU15AT15 AT15AS15 AS15AR15 AR15AQ15 AQ15AP15 AP15AO15 AO15AN15 AN15AM15 AM15AL15 AL15AK15 AK15AJ15 AJ15AI15 AI15AH15 AH15AG15 AG15AF15 AF15AE15 AE15AD15 AD15AC15 AC15AB15 AB15A1 A1AB2 AB2AC2 AC2AD2 AD2AE2 AE2AF2 AF2AF3"/>
    </vehicle>
    <vehicle id="102" depart="102.00">
        <route edges="AP18AQ18 AQ18AP18 AP18AO18 AO18AN18 AN18AM18 AM18AL18 AL18AK18 AK18AJ18 AJ18AI18 AI18AH18 AH18AH17 AH17AH16 AH16AH15 AH15AH14 AH14AH15"/>
    </vehicle>
    <vehicle id="103" depart="103.00">
        <route edges="AM3AN3 AN3AM3 AM3AL3 AL3AK3 AK3AJ3 AJ3AI3 AI3AH3 AH3AG3 AG3AF3 AF3AE3 AE3AD3 AD3AC3 AC3AB3 AB3A1 A1AB23 AB23AC23 AC23AC22"/>
    </vehicle>
    <vehicle id="104" depart="104.00">
        <route edges="AM13AM12 AM12AM13 AM13AM14 AM14AM15 AM15AM16 AM16AM17 AM17AM18 AM18AM19 AM19AM20 AM20AN20 AN20AO20 AO20AP20 AP20AQ20 AQ20AR20 AR20AS20 AS20AT20 AT20AU20 AU20AV20 AV20AW20 AW20AX20 AX20AY20 AY20AZ20 AZ20BA20 BA20BB20 BB20BC20 BC20BD20 BD20BE20 BE20BE19"/>
    </vehicle>
    <vehicle id="105" depart="105.00">
        <route edges="AI28AJ28 AJ28AI28 AI28AH28 AH28AG28 AG28AF28 AF28AE28 AE28AD28 AD28AC28 AC28AB28 AB28A1 A1AB17 AB17AC17 AC17AD17 AD17AE17 AE17AF17 AF17AG17 AG17AH17 AH17AI17 AI17AJ17 AJ17AK17 AK17AL17 AL17AM17 AM17AN17 AN17AO17 AO17AP17 AP17AQ17 AQ17AR17 AR17AS17 AS17AT17 AT17AU17 AU17AV17 AV17AW17 AW17AX17 AX17AY17 AY17AY18"/>
    </vehicle>
    <vehicle id="106" depart="106.00">
        <route edges="AO20AN20 AN20AN21 AN21AN20"/>
    </vehicle>
    <vehicle id="107" depart="107.00">
        <route edges="BD22BC22 BC22BB22 BB22BA22 BA22AZ22 AZ22AY22 AY22AX22 AX22AW22 AW22AV22 AV22AU22 AU22AT22 AT22AS22 AS22AR22 AR22AQ22 AQ22AP22 AP22AO22 AO22AN22 AN22AM22 AM22AL22 AL22AK22 AK22AJ22 AJ22AI22 AI22AH22 AH22AG22 AG22AF22 AF22AE22 AE22AD22 AD22AC22 AC22AB22 AB22A1 A1AB4 AB4AC4 AC4AD4 AD4AE4 AE4AF4 AF4AG4 AG4AH4 AH4AI4 AI4AJ4 AJ4AK4 AK4AL4 AL4AM4 AM4AN4 AN4AO4 AO4AP4 AP4AQ4 AQ4AR4 AR4AS4 AS4AT4 AT4AU4 AU4AV4 AV4AW4 AW4AX4 AX4AY4 AY4AZ4 AZ4BA4 BA4BB4 BB4BC4 BC4BD4 BD4BE4 BE4BE5"/>
    </vehicle>
    <vehicle id="108" depart="108.00">
        <route edges="AR20AS20 AS20AS19 AS19AS18 AS18AT18 AT18AU18 AU18AV18 AV18AW18 AW18AW17"/>
    </vehicle>
    <vehicle id="109" depart="109.00">