<?xml version="1.0" encoding="UTF-8"?>

<!-- generated on 12/10/20 11:23:57 by Eclipse SUMO duarouter Version 1.8.0
<configuration xmlns:xsi="http://www.w3.org/2001/XMLSchema-instance" xsi:noNamespaceSchemaLocation="http://sumo.dlr.de/xsd/duarouterConfiguration.xsd">

    <input>
        <net-file value="randtest.net.xml"/>
        <route-files value="randtest.trips.xml"/>
    </input>

    <output>
        <output-file value="randtest.rou.xml"/>
        <alternatives-output value="randtest.rou.alt.xml"/>
    </output>

    <report>
        <ignore-errors value="true"/>
    </report>

</configuration>
-->

<routes xmlns:xsi="http://www.w3.org/2001/XMLSchema-instance" xsi:noNamespaceSchemaLocation="http://sumo.dlr.de/xsd/routes_file.xsd">
    <vehicle id="0" depart="0.00">
        <route edges="2760 3268 -3514 -2937 -2398 -1710 -1161 -1145"/>
    </vehicle>
    <vehicle id="1" depart="1.00">
        <route edges="-4264 -3576 -3090 -2631 -2170 2168 -1394 -923 -471 -118 -83 -42 38 59 94 194 379 527 1147 1704 2376 2857 3381 3976 -3976"/>
    </vehicle>
    <vehicle id="2" depart="2.00">
        <route edges="3863 -3863 -3287 -3245 -2354 2352 -336 -131 127 133 341"/>
    </vehicle>
    <vehicle id="3" depart="3.00">
        <route edges="7 15 47 -9598 -7654 -2206 2207 -2207"/>
    </vehicle>
    <vehicle id="4" depart="4.00">
        <route edges="-7317 7277 9249 -8777 8773 -5474 -5470 5471 -4246 -1819 1817 -2506 -1321 -733 731 -1162"/>
    </vehicle>
    <vehicle id="5" depart="5.00">
        <route edges="-3591 -3112 -2639 -2181 -1388 -848 -455 -225 -116 126 333 472 -426 420 551 1213 2501 4246 5476 7051 8937 10857"/>
    </vehicle>
    <vehicle id="6" depart="6.00">
        <route edges="-10850 -5474 -4244 -3542 -3534 -1213 -551 -420 426 -472 -333 -126 116 -168 -45 47 -9598 -7654 -2206 2245 -4646 -3750"/>
    </vehicle>
    <vehicle id="7" depart="7.00">
        <route edges="2929 -2929 -2382 -1710 -1161 -527 -379 385 548 -731 -440 -418 426 628 1217"/>
    </vehicle>
    <vehicle id="8" depart="8.00">
        <route edges="-3594 -3114 -2639 -2181 -2172 2172"/>
    </vehicle>
    <vehicle id="9" depart="9.00">
        <route edges="508 -734 -202 -104"/>
    </vehicle>
    <vehicle id="10" depart="10.00">
        <route edges="50 80 90 -45 49 -1389 -850 848 1388 2181 2647 3130 3599"/>
    </vehicle>
    <vehicle id="11" depart="11.00">
        <route edges="-5425 -1213 -551 -420 -196 -104 -77 59 94 170 -143 145 371 515 1140 1684 2365 2768 3307 -3307"/>
    </vehicle>
    <vehicle id="12" depart="12.00">
        <route edges="8895 -8895 -7037 -5476 -4246 -2501 -1213 -551 -420 426 -472 -333 -126 116 -168 -45 47 -9598 -7654 -2206 2245 -5785 5809 -7791 -5931 5915 -5915"/>
    </vehicle>
    <vehicle id="13" depart="13.00">
        <route edges="-1676 1684 2365 -2365"/>
    </vehicle>
    <vehicle id="14" depart="14.00">
        <route edges="5734 -5737 -4296 4294 5735 -4305 4299 -5778 5779 -2248 -1546 -1028 -340 336 -2352 2351 2355 -2361 2365"/>
    </vehicle>
    <vehicle id="15" depart="15.00">
        <route edges="5031 -5031 -3905 3903 3933"/>
    </vehicle>
    <vehicle id="16" depart="16.00">
        <route edges="10846 -10723 -9249 -7277 7317 9286"/>
    </vehicle>
    <vehicle id="17" depart="17.00">
        <route edges="-5934 -4683 4681 -3943 -3372 -2793 -2374 -1704 -1147 -527 -379 -194 -94 -59 -38 42 83 106 206 452 840 1368"/>
    </vehicle>
    <vehicle id="18" depart="18.00">
        <route edges="5433 -1217 -924 -480 -333 -126 116 225 455 848 1388 2181 2639"/>
    </vehicle>
    <vehicle id="19" depart="19.00">
        <route edges="5915 -7757 -4671 -3792 -3265 -2354 2352 -336 -131 127 143 -170 194"/>
    </vehicle>
    <vehicle id="20" depart="20.00">
        <route edges="3576 -3576 -3090 -2631 -2170 -1378 -1368"/>
    </vehicle>
    <vehicle id="21" depart="21.00">
        <route edges="-3702 3704 -49 -15 19 -26 38 59 94 194 379 527 1147 1704 2374 2785 3370 3966 5188 -5188"/>
    </vehicle>
    <vehicle id="22" depart="22.00">
        <route edges="-1386 1388 2181 2647 3130 3599 -3560 -3086 -3077 3081 3554 -4248"/>
    </vehicle>
    <vehicle id="23" depart="23.00">
        <route edges="-19 19 50 83 126 333 480 -480"/>
    </vehicle>
    <vehicle id="24" depart="24.00">
        <route edges="2637 -3105 -846 -455 -225 -116 126 333 472 -426 420 553 1216 1817 5429 6876 -6876"/>
    </vehicle>
    <vehicle id="25" depart="25.00">
        <route edges="-5778 5779 -2248 -1546 -1028 -340 336 -1548 -513 515 1136 1675 2360 2762 3282 3857 -3857"/>
    </vehicle>
    <vehicle id="26" depart="26.00">
        <route edges="-4242 -3542 -2960 -1819 1817 -2506 -1321 -733 731 -548 -385 379 527 1147 1704 2374 2785 3370 3966 5188 6422 8336"/>
    </vehicle>
    <vehicle id="27" depart="27.00">
        <route edges="2799 -2799 -2376 -1704 -1147 -527 -379 385 548 -731 733 1321 2505"/>
    </vehicle>
    <vehicle id="28" depart="28.00">
        <route edges="-3118 -2639 -2181 -1388 -848 850 1389 -49 -15 19 -26 38 59 94 194 379 527 1147 1704 2370 2776 3329 3931"/>
    </vehicle>
    <vehicle id="29" depart="29.00">
        <route edges="-3081 -2618 -2142 2128 2612 -2170 2168 -1394 -923 922 -628 -426 418 440 733 -733"/>
    </vehicle>
    <vehicle id="30" depart="30.00">
        <route edges="9584 -9584 -7570 -5781 -2245 2206 7654 9598 -47 45 168 207 -204 206 452 840 1370 2142 2628 3086"/>
    </vehicle>
    <vehicle id="31" depart="31.00">
        <route edges="11837 -9808 -7790 7786 -9578 -7570 -5781 -2245 2206 7654 9598 -47 45 168 207 -204 206 452 840 1370 2128 3075 3550"/>
    </vehicle>
    <vehicle id="32" depart="32.00">
        <route edges="5688 -4268 -3576 -3090 -2631 -2170 2168 -1394 -923 -471 -118 116 -168 -45 47 -9598 -7654 -2206 2245 -4646 -3750 3758 4665 4671"/>
    </vehicle>
    <vehicle id="33" depart="33.00">
        <route edges="-3703 3703 -9598 -7654 -2206 2245 5781 7570 9578 -7786 7790 9808 -11837"/>
    </vehicle>
    <vehicle id="34" depart="34.00">
        <route edges="-4764 -3872 3874 -4755 4754 -4729 -4707 4706 -4706"/>
    </vehicle>
    <vehicle id="35" depart="35.00">
        <route edges="-3554 -3082 -2622 -2142 -1370 -840 -452 -206 -106 -83 -42 38 59 94 194 379 527 1147 1704 2376 2799 3377 3968 5190 6478 8381"/>
    </vehicle>
    <vehicle id="36" depart="36.00">
        <route edges="6287 -6287 -5031 -3905 -3329 -2776 -2370 -1704 -1147 -527 -379 -194 -94 -59 -38 26 -19 15 49 -1389 -850 848 1388 2181 2647 3126 4314 -5597"/>
    </vehicle>
    <vehicle id="37" depart="37.00">
        <route edges="3077 -2628 -2142 -1370 -840 -452 -206 204 -207 -168 -45 47 -9598 -7654 -2206 2245 5781 7570 9578 -7786 7790 -7790"/>
    </vehicle>
    <vehicle id="38" depart="38.00">
        <route edges="7570 -7570 -5781 -2245 2206 7654 9598 -5779 5778 -4299 4305 -5735 5736 -5732 5734 7324 9395 -9477 9485 -9485"/>
    </vehicle>
    <vehicle id="39" depart="39.00">
        <route edges="-4209 4207 5433 -1217 -924 -480 -333 -126 116 225 455 848 1388 2181 2647 3126 4308 -4308"/>
    </vehicle>
    <vehicle id="40" depart="40.00">
        <route edges="12104 -9977 -5998 -4735 4729 -4754 4755 -3874 -3307 -2768 2764 3283 3792 4671 -4671"/>
    </vehicle>
    <vehicle id="41" depart="41.00">
        <route edges="1673 2358 -1710 -1161 -527 -379 -194 -94 -59 -38 42 83 118 471 923 1394 -2168 2170 2631 3090 3576 4286 5730 7319"/>
    </vehicle>
    <vehicle id="42" depart="42.00">
        <route edges="-6478 -5190 -3968 -3933 -3903 3931 -3944 -3370 3352 3943 -3943"/>
    </vehicle>
    <vehicle id="43" depart="43.00">
        <route edges="9969 -7802 -5938 -4683 4681 -3943 -3372 -2793 -2374 -1704 -1147 -527 -379 -194 -94 -59 -38 42 83 106 206 452 840 1370 2128 3075 3550 4250 7063 8954 11025"/>
    </vehicle>
    <vehicle id="44" depart="44.00">
        <route edges="-1665 -1136 -515 -371 369 -342 341 -170 -94 -59 -38 42 83 106 206 444 1333 -2143 -1374"/>
    </vehicle>
    <vehicle id="45" depart="45.00">
        <route edges="-2126 -1370 -840 -452 -206 -106 -83 -42 38 59 94 194 379 527 1147 1704 2374 2793"/>
    </vehicle>
    <vehicle id="46" depart="46.00">
        <route edges="4705 -5176 -3943 -3352 3370 3944 -3931 3903 3933 3968 5190 6478 8387 -8387"/>
    </vehicle>
    <vehicle id="47" depart="47.00">
        <route edges="-12 -3 7 15 49 -1389 -850 848 1388 2181 2649 3131 3596 4307 5751 -7507"/>
    </vehicle>
    <vehicle id="48" depart="48.00">
        <route edges="9806 -9806 -7790 7786 9805 11600"/>
    </vehicle>
    <vehicle id="49" depart="49.00">
        <route edges="9249 -8777 8773 -5474 -5470 5471 -4246 -1819 1817 -2506 -1321 -733 731 -548 -385 379 527 1161 1710 -2358 2357 2360 2762 3282 3855 4755 6175"/>
    </vehicle>
    <vehicle id="50" depart="50.00">
        <route edges="-1028 -340 336 -2352 2354 3245 3287 3859"/>
    </vehicle>
    <vehicle id="51" depart="51.00">
        <route edges="3327 -2795 -2376 -1704 -1147 -1145 -549 -528 538 1192"/>
    </vehicle>
    <vehicle id="52" depart="52.00">
        <route edges="-4242 -3542 -3534 -1213 1203 -1217 -922 923 1394 -2168 2170 2631 3092"/>
    </vehicle>
    <vehicle id="53" depart="53.00">
        <route edges="-2143 -1374 1368 1378 2168 -1394 -923 922 1217 -1203 1213 1814 1817 5429 6876 -10866 -8949"/>
    </vehicle>
    <vehicle id="54" depart="54.00">
        <route edges="-8128 -6287 -5031 -3905 -3329 -2776 -2370 -1704 -1147 -527 -379 385 548 -731 733 1321 2506 5429 6876 -10866 -8949 -8889 8889"/>
    </vehicle>
    <vehicle id="55" depart="55.00">
        <route edges="6285 -5039 -3905 -3329 -2776 -2370 -1704 1702 1710 -2358 -1673 1663 1684 2365 2764 3283 3792 4671 -4671"/>
    </vehicle>
    <vehicle id="56" depart="56.00">
        <route edges="-9397 -7539 -5757 5745 -5766 -4423 4422 -5598 -4259 -3556 -3086 -2628 2614 3544 3546 -3561"/>
    </vehicle>
    <vehicle id="57" depart="57.00">
        <route edges="7558 -7557 -5769 -4429 -3661 -3135 -2649 -2181 -1388 -848 850 1389 -49 -15 19 -26 38 59 94 194 379 527 1147 1704 2374 2785 3370 3966 5188 6420"/>
    </vehicle>
    <vehicle id="58" depart="58.00">
        <route edges="-4658 4646 -2245 2206 7654 9598 -47 45 168 207 -204 206 452 840 1370 2142 2622 3082"/>
    </vehicle>
    <vehicle id="59" depart="59.00">
        <route edges="2179 -2632 -846 850 1389 -49 47 -2248 -1546 -1028 -340 336 -2352 2354 3265 -3283"/>
    </vehicle>
    <vehicle id="60" depart="60.00">
        <route edges="4260 -3631 3599 -3560 -3086 -2628 -2142 2128 2612 -2170 2168 -1394 -923 922 1217 -1203 1203"/>
    </vehicle>
    <vehicle id="61" depart="61.00">
        <route edges="4430 -4314 -3126 -2647 -2181 -1388 -848 850 1389 -49 -15 19 -26 38 59 94 194 379 527 1161"/>
    </vehicle>
    <vehicle id="62" depart="62.00">
        <route edges="-10 -3 7 15 47 -5779 5778 -4299 4305 -5735 5736 -5736"/>
    </vehicle>
    <vehicle id="63" depart="63.00">
        <route edges="-10474 -8381 -8375 8376 -6605 -5207 5201 -6285 6287 8129"/>
    </vehicle>
    <vehicle id="64" depart="64.00">
        <route edges="6296 -5186 -3966 -3370 -2785 -2374 -1704 -1147 -527 -379 -194 -94 -59 -38 42 83 118 471 923 1394 -2168 2170 2631 3090 3576 4266 5688"/>
    </vehicle>
    <vehicle id="65" depart="65.00">
        <route edges="-4712 -3821 -3280 -2762 -2360 -1675 1663 1698 -2355 -1662"/>
    </vehicle>
    <vehicle id="66" depart="66.00">
        <route edges="6293 -6294 -5073 -3931 -3329 -2776 -2370 -1704 -1147 -527 -379 -194 -94 -59 -38 42 83 116 225 455 846"/>
    </vehicle>
    <vehicle id="67" depart="67.00">
        <route edges="-1544 -1028 -340 -131 127 143 368 1030 1144 1147 1704 2374 2785 3370 3966 5188 6420 8330 10255"/>
    </vehicle>
    <vehicle id="68" depart="68.00">
        <route edges="-1216 -553 -420 -196 -104 -81 -42 -9 5 13 44"/>
    </vehicle>
    <vehicle id="69" depart="69.00">
        <route edges="4290 -4290 -3580 -3107 -3105 -846 850 1389 -49 -15 -7 3 -3"/>
    </vehicle>
    <vehicle id="70" depart="70.00">
        <route edges="-8567 -5217 -3976 -3381 -2857 -2376 -1704 -1147 -1144 -1030 -368 -143 133"/>
    </vehicle>
    <vehicle id="71" depart="71.00">
        <route edges="-4209 -3538 -2960 -1819 1817 -2506 -1321 -733 731 -548 -385 379 527 1147 1704 2376 2799 3377 3968 5190 6428"/>
    </vehicle>
    <vehicle id="72" depart="72.00">
        <route edges="-7322 -5736 5735 -4305 4299 -5778 5779 -2248 -1546 -1028 -340 336 -2352 2354 3245 -2764 2768 3323 -3864"/>
    </vehicle>
    <vehicle id="73" depart="73.00">
        <route edges="10854 -10850 -5474 -5470 5471 -4246 -1819 1817 -2506 -1321 -733 731 -548 -385 379 527 1147 1704 2374 2793 3372 3941"/>
    </vehicle>
    <vehicle id="74" depart="74.00">
        <route edges="-341 341 -170 -94 -59 77 104 196 420 551 1213 2501 4246 5494 -5494"/>
    </vehicle>
    <vehicle id="75" depart="75.00">
        <route edges="9804 -9806 -7790 7786 -9578 -7570 -5781 -2245 2206 7654 9598 -3703 -3137 -850 848 1388 2181 2649 3135"/>
    </vehicle>
    <vehicle id="76" depart="76.00">
        <route edges="-7757 -4671 -3792 -3283 -2764 -2365 -1684 -1140 1136"/>
    </vehicle>
    <vehicle id="77" depart="77.00">
        <route edges="-225 -116 -83 -42 38 59 94 194 417 -417"/>
    </vehicle>
    <vehicle id="78" depart="78.00">
        <route edges="-528 548 -731 -440 -418 426 628 -922 923 1394 -2168 2168"/>
    </vehicle>
    <vehicle id="79" depart="79.00">
        <route edges="-371 369 -342 341 368 1030 1144 1147 1704 2370 2776 3329 3931 -3944"/>
    </vehicle>
    <vehicle id="80" depart="80.00">
        <route edges="-126 -83 -42 38 59 94 194 379 527 1161 1710 2382 2869"/>
    </vehicle>
    <vehicle id="81" depart="81.00">
        <route edges="-3703 4440 5778 -4299 4305 -5735 -4294 4296 5741 7404 -7539 7541"/>
    </vehicle>
    <vehicle id="82" depart="82.00">
        <route edges="5785 -2245 2207 -340 -131 127 143 -170 194 -194"/>
    </vehicle>
    <vehicle id="83" depart="83.00">
        <route edges="-3797 -3276 -2760 -2360 -1675 -1136 -515 513 1548 -336 336"/>
    </vehicle>
    <vehicle id="84" depart="84.00">
        <route edges="-3576 3561 -3546 -3544 -2614 2628 3086 -3086"/>
    </vehicle>
    <vehicle id="85" depart="85.00">
        <route edges="8320 -5186 -3966 -3370 -2785 -2374 -1704 -1147 -527 -379 -194 170"/>
    </vehicle>
    <vehicle id="86" depart="86.00">
        <route edges="-85 87 145 371 515 1136 1675 2360 2762 3280 3849 4729"/>
    </vehicle>
    <vehicle id="87" depart="87.00">
        <route edges="5031 -5031 -3905 -3329 -2776 -2370 -1704 -1147 -527 -379 -194 -94 -59 -38 26 -19 15 49 -1389 -850 848 1388 2181 2649 3135 3647 -3647"/>
    </vehicle>
    <vehicle id="88" depart="88.00">
        <route edges="-1704 -1147 -527 -379 385 548 -731 733 1321 2506 -1817 1819 4246 -5471 5470 5474 10846 -10723 10717 -8785"/>
    </vehicle>
    <vehicle id="89" depart="89.00">
        <route edges="-7322 -5736 5735 -4305 4299 -5778 5779 -9598 -9585 9591 11619 -11620 -9597"/>
    </vehicle>
    <vehicle id="90" depart="90.00">
        <route edges="38 59 94 194 379 527 1147 1704 2376 2797 3375"/>
    </vehicle>
    <vehicle id="91" depart="91.00">
        <route edges="9487 -9487 -7545 -5765 -3643 -3135 -2649 -2181 -1388 -848 850 1389 -49 -15 19 -26 38 59 94 194 379 527 1147 1704 2374 -2374"/>
    </vehicle>
    <vehicle id="92" depart="92.00">
        <route edges="-6605 -5207 5201 -5039 5029 -3944 -3370 3352 3943 -4681 4683 5934 -5933"/>
    </vehicle>
    <vehicle id="93" depart="93.00">
        <route edges="5915 -7757 -4671 -3792 -3265 -2354 2352 -336 -131 -85 -44"/>
    </vehicle>
    <vehicle id="94" depart="94.00">
        <route edges="-3329 -2776 -2370 -1704 -1147 -527 -379 -194 -94 -59 -38 42 83 118 471 923 1394 -2168 2170 2631 3090 3576 4286 5728 -9285"/>
    </vehicle>
    <vehicle id="95" depart="95.00">
        <route edges="-7317 -5722 -4268 -3576 -3090 -2631 -2170 2168 -1394 -923 -471 -118 -83 -42 -9 5 13 44 85 131 336 -2352 2354 3245 3287 3859 3892 4871 -4871"/>
    </vehicle>
    <vehicle id="96" depart="96.00">
        <route edges="-3892 -3859 3863 4763 6174 8098"/>
    </vehicle>
    <vehicle id="97" depart="97.00">
        <route edges="-7800 -5931 -4679 -3792 3759 -3858 3859 3892 4923 6278"/>
    </vehicle>
    <vehicle id="98" depart="98.00">
        <route edges="1147 -1147 -527 -379 -194 -94 -59 -38 26 -19 15 49 -1389"/>
    </vehicle>
    <vehicle id="99" depart="99.00">
        <route edges="9975 -9975 -5998 -4735 4729 -3857 -3282 -2762 -2360 -1675 -1136 -515 513 1548 -336 340 1028 1546 2248 -5779 5778 -4299 4305 -5735 5736 -5732 5734"/>
    </vehicle>
    <vehicle id="100" depart="100.00">
        <route edges="923 -923 -471 -118 -83 -42 -9 5 13 44 85 131 336 -2352 2354 3245 3287 3859 3892 4923 6281 8121"/>
    </vehicle>
    <vehicle id="101" depart="101.00">
        <route edges="5736 -5736 5735 -4305 4299 -5778 5779 -2248 -1546 -1028 -340 -131 127 143 368 1030 1144 1147 1704 2376 2857 3381 -3381"/>
    </vehicle>
    <vehicle id="102" depart="102.00">
        <route edges="-8974 -7075 -4250 -3550 -3075 -2128 -1370 -840 -452 -206 204 -207 -168 -45 47 -2248 -1546 -1028 -340 336 -2352 2354 3245 -2764 2768 3307 3874 -3874"/>
    </vehicle>
    <vehicle id="103" depart="103.00">
        <route edges="-6500 -5194 -3968 -3377 -2799 -2376 -1704 1702 1710 -2358 -1673 1663 -1663"/>
    </vehicle>
    <vehicle id="104" depart="104.00">
        <route edges="-5938 -5932 -3797 -3276 -2760 -2360 -1675 -1136 -515 513 1548 -336 340 1028 1546 2248 -3703 -3137 -850 848 1388 2181 2649 3135 3661 4429 5769 7547 9533"/>
    </vehicle>
    <vehicle id="105" depart="105.00">
        <route edges="-4209 -3538 -2960 -1819 1817 -2506 -1321 -733 731 -548 -385 379 527 1161 1710 -2358 2357 2360 2762 3280 3821 4728"/>
    </vehicle>
    <vehicle id="106" depart="106.00">
        <route edges="-8135 -6291 -5031 -3905 3903 3933 3968 5194 6480 8389 -8389"/>
    </vehicle>
    <vehicle id="107" depart="107.00">
        <route edges="8895 -8895 -7037 -5476 -4246 -2501 -1213 -551 -420 426 -472 -333 -126 116 -168 -45 47 -9598 -7654 -2206 2245 5781 7570 9578 -7786 7790 9806"/>
    </vehicle>
    <vehicle id="108" depart="108.00">
        <route edges="118 -118 -83 -42 38 59 94 194 379 527 1161 1710 -2358 2357 2360 2762 3282 3851"/>
    </vehicle>
    <vehicle id="109" depart="109.00">
        <route edges="-2799 2857 3381 3976 5217 -5217"/>
    </vehicle>
    <vehicle id="110" depart="110.00">
        <route edges="923 -923 922 -628 -426 -196 200"/>
    </vehicle>
    <vehicle id="111" depart="111.00">
        <route edges="11231 -10743 -9249 -7277 -5722 -4268 -3576 3561 -3546 -3544 -2614 2628 3086 3556 4253"/>
    </vehicle>
    <vehicle id="112" depart="112.00">
        <route edges="-11620 -9597 9585 9598 -3703 -3137 -850 848 1386 2173 -2066 2122"/>
    </vehicle>
    <vehicle id="113" depart="113.00">
        <route edges="-9465 -5743 -4305 4299 -5778 5779 -2248 -1546 -1028 -340 336 -1548 -513 515 1136 1675 2360 2760 3276 3797 5933"/>
    </vehicle>
    <vehicle id="114" depart="114.00">
        <route edges="-2929 -2382 -1710 -1161 -527 -379 -194 -94 -59 -38 42 83 106 206 452 840 1370 2128 3075 3550 4250 7075 8974"/>
    </vehicle>
    <vehicle id="115" depart="115.00">
        <route edges="-1386 1388 2181 2639 3124 -3594"/>
    </vehicle>
    <vehicle id="116" depart="116.00">
        <route edges="1923 -1321 -733 731 -548 -385 379 527 1161 1710 2382 2869 3382"/>
    </vehicle>
    <vehicle id="117" depart="117.00">
        <route edges="-3759 -3283 -2764 -2365 -1684 -1663 1673 2358 2398 2955 -3371 -2793 2783 -2783"/>
    </vehicle>
    <vehicle id="118" depart="118.00">
        <route edges="6877 -6876 -5429 -1817 -1216 -553 -420 426 -472 -333 -126 116 225 455 848 1388 2181 2647 3126 4308 -4308"/>
    </vehicle>
    <vehicle id="119" depart="119.00">
        <route edges="1923 -1321 -733 -440 -418 426 -472 -333 -126 116 225 455 848 1388 2181 2649"/>
    </vehicle>
    <vehicle id="120" depart="120.00">
        <route edges="-7273 -5722 -4268 -3576 -3090 -2631 -2170 2168 -1394 -923 -471 -118 116 207"/>
    </vehicle>
    <vehicle id="121" depart="121.00">
        <route edges="-9969 -7814 -5938 -4683 4681 5180 6296 -5186 5188 6418 8325"/>
    </vehicle>
    <vehicle id="122" depart="122.00">
        <route edges="-3513 -2933 2937 3514 -3268 3266 3280 3821"/>
    </vehicle>
    <vehicle id="123" depart="123.00">
        <route edges="-38 26 -19 15 47 -9598 -7654 -2206 2245 5781 7570 9578 -7786 7790 -7790"/>
    </vehicle>
    <vehicle id="124" depart="124.00">
        <route edges="3242 -3241 -2652 -2204 -1394 -923 922 -628 -426 418 432 1820 -1192 -538 528 -528"/>
    </vehicle>
    <vehicle id="125" depart="125.00">
        <route edges="-480 -457 461 855 1394 -2168 2170 2631 3090 3576 4268"/>
    </vehicle>
    <vehicle id="126" depart="126.00">
        <route edges="-131 131 340 1028 1546 2248 -5779 5778 -4299 4305 -5735 5736 -5732 5734 7324 9395 11307 -9481"/>
    </vehicle>
    <vehicle id="127" depart="127.00">
        <route edges="9973 -9973 -7814 -5938 5934 -4712 -4706 4707 4729 -4754 4755 -3874 -3307 -2768 2764 3283 3792 4679 5921 7790 9808"/>
    </vehicle>
    <vehicle id="128" depart="128.00">
        <route edges="-1321 -733 731 -548 -385 379 527 1161 1710 -2358 2357 2360 2762 3282 3855 4755 -3874"/>
    </vehicle>
    <vehicle id="129" depart="129.00">
        <route edges="-4209 -3538 -2960 -1819 1817 -2506 -1321 -733 731 -548 -385 379 527 1147 1704 2374 2793 3372 3943 5180 6314 8323"/>
    </vehicle>
    <vehicle id="130" depart="130.00">
        <route edges="6418 -8129 -6287 -5031 -3905 -3329 -2776 2772 2857 3381 3988 5220 6766"/>
    </vehicle>
    <vehicle id="131" depart="131.00">
        <route edges="-5777 5767 -5765 -3643 -3135 -2649 -2181 -1388 -848 850 1389 -49 -15 19 -26 38 59 94 194 379 527 1147 1704 2370 2776 3329 -3329"/>
    </vehicle>
    <vehicle id="132" depart="132.00">
        <route edges="5472 -5437 -4209 4207 5433 -1217 -924 -480 -333 -126 116 229 456 -3704 3702"/>
    </vehicle>
    <vehicle id="133" depart="133.00">
        <route edges="2207 -2207 2206 7654 9598 -3703 -3137 -850 848 1388 2181 2649 3135 3661 4429 5777 7562 9536"/>
    </vehicle>
    <vehicle id="134" depart="134.00">
        <route edges="3075 -3075 -2128 -1370 -840 -452 -206 -106 -83 -42 38 59 94 194 379 527 1147 1704 2376 2799 3377 3968 5194 6480 8389 -10449"/>
    </vehicle>
    <vehicle id="135" depart="135.00">
        <route edges="5201 -5039 -3905 -3329 -2776 -2370 -1704 -1147 -527"/>
    </vehicle>
    <vehicle id="136" depart="136.00">
        <route edges="3114 -3114 -2639 -2181 -2172 2173 -2066 -1367 -838 837"/>
    </vehicle>
    <vehicle id="137" depart="137.00">
        <route edges="-2506 -1321 -733 731 -548 -385 379 527 1161 1710 -2358 2357 2360 2762 -2762"/>
    </vehicle>
    <vehicle id="138" depart="138.00">
        <route edges="-206 206 452 840 1374"/>
    </vehicle>
    <vehicle id="139" depart="139.00">
        <route edges="-4253 -3556 -3086 -2628 -2142 -1370 -840 -452 -206 -106 -83 -42 38 59 94 194 379 527 1147 1704 2374"/>
    </vehicle>
    <vehicle id="140" depart="140.00">
        <route edges="369 -369 371 515 1136 1675 2360 2760 3276 3797 -3797"/>
    </vehicle>
    <vehicle id="141" depart="141.00">
        <route edges="2631 -2631 -2170 2168 -1394 -923 -471 -118 116 -168 -45 47 -9598 -7654 -2206 2245 -5785 5809 -7791 -5931 -4679"/>
    </vehicle>
    <vehicle id="142" depart="142.00">
        <route edges="-9 7 15 49 -1389 -850 846 3105 3107 3580 4296 5741 7404 -7539 7541"/>
    </vehicle>
    <vehicle id="143" depart="143.00">
        <route edges="5730 -5730 -4286 -3576 -3090 -2631 -2170 2168 -1394 -923 -471 -118 -83 -42 -9 5 13 44 85 131 336 -2352 2354 -2354"/>
    </vehicle>
    <vehicle id="144" depart="144.00">
        <route edges="-7322 -5736 5735 -4305 4299 -5778 5779 -9598 -7654 -2206 2245 -4646 -3750 3758 4665 4671 7758 -6172 -4763"/>
    </vehicle>
    <vehicle id="145" depart="145.00">
        <route edges="-10097 -8104 -4871 -3892 -3859 -3287 -3245 -2354 2352 -336 340 1028 1546 2248 -47 49 -456 456"/>
    </vehicle>
    <vehicle id="146" depart="146.00">
        <route edges="2647 -2647 -2181 -1388 -848 850 1389 -49 47 -9598 -7654 -2206 2245 -5785 -4658"/>
    </vehicle>
    <vehicle id="147" depart="147.00">
        <route edges="3899 -3899 -3323 -2768 2764 -3245 -2354 2352 -336 340 1028 1546 2248 -47 45 168 207 -204 206 452 840 1368"/>
    </vehicle>
    <vehicle id="148" depart="148.00">
        <route edges="-7537 -5766 -4423 4422 -5598 -4259 -3556 -3086 -2628 2614 3544 3546 -3561 3576 4268 5722 7277 9249 -8777 8785 -10717"/>
    </vehicle>
    <vehicle id="149" depart="149.00">
        <route edges="-1333 -444 -206 -106 126 333 480 924 1217 -5433 -4207 4209 5437 6882"/>
    </vehicle>
    <vehicle id="150" depart="150.00">
        <route edges="7324 -7324 -5734 -4290 -3580 -3107 -3105 -846 -455 -225 -116 126"/>
    </vehicle>
    <vehicle id="151" depart="151.00">
        <route edges="5476 -5476 -4246 -2501 -1213 -551 -420 426 -472 -333 -126 106 206 444 1367 2066"/>
    </vehicle>
    <vehicle id="152" depart="152.00">
        <route edges="-2764 -2365 -1684 -1140 -515 -371 369 -342 341 -170 -94 -59 77 104 196 420 551 1213 3534 -2960"/>
    </vehicle>
    <vehicle id="153" depart="153.00">
        <route edges="-472 -333 -126 116 225 455 846 3105 3107 3580 4290 5734 7324"/>
    </vehicle>
    <vehicle id="154" depart="154.00">
        <route edges="4728 -5995 4707 4729 -4754 4755 6175"/>
    </vehicle>
    <vehicle id="155" depart="155.00">
        <route edges="7271 -5730 -4286 -3576 -3090 -2631 -2170 2168 -1394 -923 -471 -118 -83 -42 -9 5 13 44 85 131 336 -2352 2354 3265 3759 -3858"/>
    </vehicle>
    <vehicle id="156" depart="156.00">
        <route edges="-3892 -3859 -3287 -3245 -2354 2352 -336 -131 127 143 -170 194 385 548 -731 733 1321 2506 -2506"/>
    </vehicle>
    <vehicle id="157" depart="157.00">
        <route edges="4440 -4440 3704 -456 -229 -116 126 333 480 924 1217 -5433 -4207 4209 5461 6928"/>
    </vehicle>
    <vehicle id="158" depart="158.00">
        <route edges="-6877 -5431 -1817 -1814 -1213 1203 -1217 -922 923 1394 2204 2654"/>
    </vehicle>
    <vehicle id="159" depart="159.00">
        <route edges="-2799 -2772 2776 3329 3905 5031 6291 8135"/>
    </vehicle>
    <vehicle id="160" depart="160.00">
        <route edges="5933 -5933 -3797 -3276 3268 -3514 -2937 -2398 -1710 -1161 -527 -379 -194 -94 94"/>
    </vehicle>
    <vehicle id="161" depart="161.00">
        <route edges="515 1136 1673 2358 -1710 -1161 -527 -379 385 548 -731 733 1321 2506 5431 6877"/>
    </vehicle>
    <vehicle id="162" depart="162.00">
        <route edges="-10723 10723 -10846 -5474 -5470 5471 -4246 -1819 1817 -2506 -1321 -733 731 -548 -385 379 527 1147 1704 2376 2857 3381 3988"/>
    </vehicle>
    <vehicle id="163" depart="163.00">
        <route edges="-521 527 1147 1704 2370 2776 3329 3905 5031 6293 8217"/>
    </vehicle>
    <vehicle id="164" depart="164.00">
        <route edges="4764 -4753 -3851 -3282 -3266 3276 3805 4681 5180 6296 -5186 5182 6294 -6293 6285"/>
    </vehicle>
    <vehicle id="165" depart="165.00">
        <route edges="515 1136 1675 2360 2760 3276 3805 4705 -4705"/>
    </vehicle>
    <vehicle id="166" depart="166.00">
        <route edges="4665 4679 5931 7791 -5809 5785 -2245 2206 7654 9598 -3703 -3137 -850 848 1388 2181 2647 3130 3599 -3560 -3086 -2628"/>
    </vehicle>
    <vehicle id="167" depart="167.00">
        <route edges="6175 -3899 -3864 3872 4764 6068"/>
    </vehicle>
    <vehicle id="168" depart="168.00">
        <route edges="-3597 -3126 -2647 -2181 -1388 -848 -455 -225 -116 126 333 472 -426 420 553 1216 1817 5431"/>
    </vehicle>
    <vehicle id="169" depart="169.00">
        <route edges="-8326 -6420 -5188 -3966 -3370 -2785 -2374 -1704 -1147 -527 -379 385 548 -731 733 1321 2506 -1817 1819 2960 3538 4209 5437 -5437"/>
    </vehicle>
    <vehicle id="170" depart="170.00">
        <route edges="472 628 1217 -5433 -4207"/>
    </vehicle>
    <vehicle id="171" depart="171.00">
        <route edges="-10717 -9249 -7277 -5722 -4268 -3576 3561 -3546 -3544 -2614 2628 3086 3556 4259 5597 -4430 -3701"/>
    </vehicle>
    <vehicle id="172" depart="172.00">
        <route edges="-519 527 1147 1704 2370 2776 3329 3905 5031 6285"/>
    </vehicle>
    <vehicle id="173" depart="173.00">
        <route edges="90 -45 49 -49"/>
    </vehicle>
    <vehicle id="174" depart="174.00">
        <route edges="2768 -2768 -2365 -1684 -1140 -515 -371 369 -342 341 -170 -94 92 -79"/>
    </vehicle>
    <vehicle id="175" depart="175.00">
        <route edges="9470 -9470 -7538 -5751 -4307 -3596 -3131 -2649 -2181 -1388 -848 850 1389 -49 47 -9598 -7654 -2206 2245 5781 7570 9578 -7786 7790 9806 11896"/>
    </vehicle>
    <vehicle id="176" depart="176.00">
        <route edges="8330 10255 -10238 -8323 -6314 -5180 -4681 -3805 -3276 3266 -2762"/>
    </vehicle>
    <vehicle id="177" depart="177.00">
        <route edges="9248 -7279 -5722 -4268 -3576 3561 -3561"/>
    </vehicle>
    <vehicle id="178" depart="178.00">
        <route edges="8973 -7138 -5687 -4264 -3576 -3090 -2631 -2170 2168 -1394 -923 -471 -118 -83 -42 38 59 94 194 379 527 1147 1704 2374 2793 3372 3943 -4681 4693 -4693"/>
    </vehicle>
    <vehicle id="179" depart="179.00">
        <route edges="-207 -116 126 333 472 -426 420 553 1216 1817 5429 6876 -10866 -8949"/>
    </vehicle>
    <vehicle id="180" depart="180.00">
        <route edges="3797 -3797 -3276 3268 -3514 -2937 -2398 -1710 -1161 -527 -379 385 548 -731 -440 -418 426 554 -554"/>
    </vehicle>
    <vehicle id="181" depart="181.00">
        <route edges="2168 -2168 2170 2631 3090 3576 4268 5722 7279 9282 11239"/>
    </vehicle>
    <vehicle id="182" depart="182.00">
        <route edges="-6174 -4763 -3863 -3287 -3245 -2354 2352 -336 -131 127 143 -170 194 385 548 -731 733 1327 1923"/>
    </vehicle>
    <vehicle id="183" depart="183.00">