<?xml version="1.0" encoding="UTF-8"?>
<!-- generated on 2020-12-10 11:23:18.706000 by $Id$ v1_8_0+0044-4820708f3d
  options: -n randtest.net.xml -e 1750 -o randtest.trips.xml
-->
<routes xmlns:xsi="http://www.w3.org/2001/XMLSchema-instance" xsi:noNamespaceSchemaLocation="http://sumo.dlr.de/xsd/routes_file.xsd">
    <trip id="0" depart="0.00" from="2760" to="-1145"/>
    <trip id="1" depart="1.00" from="-4264" to="-3976"/>
    <trip id="2" depart="2.00" from="3863" to="341"/>
    <trip id="3" depart="3.00" from="7" to="-2207"/>
    <trip id="4" depart="4.00" from="-7317" to="-1162"/>
    <trip id="5" depart="5.00" from="-3591" to="10857"/>
    <trip id="6" depart="6.00" from="-10850" to="-3750"/>
    <trip id="7" depart="7.00" from="2929" to="1217"/>
    <trip id="8" depart="8.00" from="-3594" to="2172"/>
    <trip id="9" depart="9.00" from="508" to="-104"/>
    <trip id="10" depart="10.00" from="50" to="3599"/>
    <trip id="11" depart="11.00" from="-5425" to="-3307"/>
    <trip id="12" depart="12.00" from="8895" to="-5915"/>
    <trip id="13" depart="13.00" from="-1676" to="-2365"/>
    <trip id="14" depart="14.00" from="5734" to="2365"/>
    <trip id="15" depart="15.00" from="5031" to="3933"/>
    <trip id="16" depart="16.00" from="10846" to="9286"/>
    <trip id="17" depart="17.00" from="-5934" to="1368"/>
    <trip id="18" depart="18.00" from="5433" to="2639"/>
    <trip id="19" depart="19.00" from="5915" to="194"/>
    <trip id="20" depart="20.00" from="3576" to="-1368"/>
    <trip id="21" depart="21.00" from="-3702" to="-5188"/>
    <trip id="22" depart="22.00" from="-1386" to="-4248"/>
    <trip id="23" depart="23.00" from="-19" to="-480"/>
    <trip id="24" depart="24.00" from="2637" to="-6876"/>
    <trip id="25" depart="25.00" from="-5778" to="-3857"/>
    <trip id="26" depart="26.00" from="-4242" to="8336"/>
    <trip id="27" depart="27.00" from="2799" to="2505"/>
    <trip id="28" depart="28.00" from="-3118" to="3931"/>
    <trip id="29" depart="29.00" from="-3081" to="-733"/>
    <trip id="30" depart="30.00" from="9584" to="3086"/>
    <trip id="31" depart="31.00" from="11837" to="3550"/>
    <trip id="32" depart="32.00" from="5688" to="4671"/>
    <trip id="33" depart="33.00" from="-3703" to="-11837"/>
    <trip id="34" depart="34.00" from="-4764" to="-4706"/>
    <trip id="35" depart="35.00" from="-3554" to="8381"/>
    <trip id="36" depart="36.00" from="6287" to="-5597"/>
    <trip id="37" depart="37.00" from="3077" to="-7790"/>
    <trip id="38" depart="38.00" from="7570" to="-9485"/>
    <trip id="39" depart="39.00" from="-4209" to="-4308"/>
    <trip id="40" depart="40.00" from="12104" to="-4671"/>
    <trip id="41" depart="41.00" from="1673" to="7319"/>
    <trip id="42" depart="42.00" from="-6478" to="-3943"/>
    <trip id="43" depart="43.00" from="9969" to="11025"/>
    <trip id="44" depart="44.00" from="-1665" to="-1374"/>
    <trip id="45" depart="45.00" from="-2126" to="2793"/>
    <trip id="46" depart="46.00" from="4705" to="-8387"/>
    <trip id="47" depart="47.00" from="-12" to="-7507"/>
    <trip id="48" depart="48.00" from="9806" to="11600"/>
    <trip id="49" depart="49.00" from="9249" to="6175"/>
    <trip id="50" depart="50.00" from="-1028" to="3859"/>
    <trip id="51" depart="51.00" from="3327" to="1192"/>
    <trip id="52" depart="52.00" from="-4242" to="3092"/>
    <trip id="53" depart="53.00" from="-2143" to="-8949"/>
    <trip id="54" depart="54.00" from="-8128" to="8889"/>
    <trip id="55" depart="55.00" from="6285" to="-4671"/>
    <trip id="56" depart="56.00" from="-9397" to="-3561"/>
    <trip id="57" depart="57.00" from="7558" to="6420"/>
    <trip id="58" depart="58.00" from="-4658" to="3082"/>
    <trip id="59" depart="59.00" from="2179" to="-3283"/>
    <trip id="60" depart="60.00" from="4260" to="1203"/>
    <trip id="61" depart="61.00" from="4430" to="1161"/>
    <trip id="62" depart="62.00" from="-10" to="-5736"/>
    <trip id="63" depart="63.00" from="-10474" to="8129"/>
    <trip id="64" depart="64.00" from="6296" to="5688"/>
    <trip id="65" depart="65.00" from="-4712" to="-1662"/>
    <trip id="66" depart="66.00" from="6293" to="846"/>
    <trip id="67" depart="67.00" from="-1544" to="10255"/>
    <trip id="68" depart="68.00" from="-1216" to="44"/>
    <trip id="69" depart="69.00" from="4290" to="-3"/>
    <trip id="70" depart="70.00" from="-8567" to="133"/>
    <trip id="71" depart="71.00" from="-4209" to="6428"/>
    <trip id="72" depart="72.00" from="-7322" to="-3864"/>
    <trip id="73" depart="73.00" from="10854" to="3941"/>
    <trip id="74" depart="74.00" from="-341" to="-5494"/>
    <trip id="75" depart="75.00" from="9804" to="3135"/>
    <trip id="76" depart="76.00" from="-7757" to="1136"/>
    <trip id="77" depart="77.00" from="-225" to="-417"/>
    <trip id="78" depart="78.00" from="-528" to="2168"/>
    <trip id="79" depart="79.00" from="-371" to="-3944"/>
    <trip id="80" depart="80.00" from="-126" to="2869"/>
    <trip id="81" depart="81.00" from="-3703" to="7541"/>
    <trip id="82" depart="82.00" from="5785" to="-194"/>
    <trip id="83" depart="83.00" from="-3797" to="336"/>
    <trip id="84" depart="84.00" from="-3576" to="-3086"/>
    <trip id="85" depart="85.00" from="8320" to="170"/>
    <trip id="86" depart="86.00" from="-85" to="4729"/>
    <trip id="87" depart="87.00" from="5031" to="-3647"/>
    <trip id="88" depart="88.00" from="-1704" to="-8785"/>
    <trip id="89" depart="89.00" from="-7322" to="-9597"/>
    <trip id="90" depart="90.00" from="38" to="3375"/>
    <trip id="91" depart="91.00" from="9487" to="-2374"/>
    <trip id="92" depart="92.00" from="-6605" to="-5933"/>
    <trip id="93" depart="93.00" from="5915" to="-44"/>
    <trip id="94" depart="94.00" from="-3329" to="-9285"/>
    <trip id="95" depart="95.00" from="-7317" to="-4871"/>
    <trip id="96" depart="96.00" from="-3892" to="8098"/>
    <trip id="97" depart="97.00" from="-7800" to="6278"/>
    <trip id="98" depart="98.00" from="1147" to="-1389"/>
    <trip id="99" depart="99.00" from="9975" to="5734"/>
    <trip id="100" depart="100.00" from="923" to="8121"/>
    <trip id="101" depart="101.00" from="5736" to="-3381"/>
    <trip id="102" depart="102.00" from="-8974" to="-3874"/>
    <trip id="103" depart="103.00" from="-6500" to="-1663"/>
    <trip id="104" depart="104.00" from="-5938" to="9533"/>
    <trip id="105" depart="105.00" from="-4209" to="4728"/>
    <trip id="106" depart="106.00" from="-8135" to="-8389"/>
    <trip id="107" depart="107.00" from="8895" to="9806"/>
    <trip id="108" depart="108.00" from="118" to="3851"/>
    <trip id="109" depart="109.00" from="-2799" to="-5217"/>
    <trip id="110" depart="110.00" from="923" to="200"/>
    <trip id="111" depart="111.00" from="11231" to="4253"/>
    <trip id="112" depart="112.00" from="-11620" to="2122"/>
    <trip id="113" depart="113.00" from="-9465" to="5933"/>
    <trip id="114" depart="114.00" from="-2929" to="8974"/>
    <trip id="115" depart="115.00" from="-1386" to="-3594"/>
    <trip id="116" depart="116.00" from="1923" to="3382"/>
    <trip id="117" depart="117.00" from="-3759" to="-2783"/>
    <trip id="118" depart="118.00" from="6877" to="-4308"/>
    <trip id="119" depart="119.00" from="1923" to="2649"/>
    <trip id="120" depart="120.00" from="-7273" to="207"/>
    <trip id="121" depart="121.00" from="-9969" to="8325"/>
    <trip id="122" depart="122.00" from="-3513" to="3821"/>
    <trip id="123" depart="123.00" from="-38" to="-7790"/>
    <trip id="124" depart="124.00" from="3242" to="-528"/>
    <trip id="125" depart="125.00" from="-480" to="4268"/>
    <trip id="126" depart="126.00" from="-131" to="-9481"/>
    <trip id="127" depart="127.00" from="9973" to="9808"/>
    <trip id="128" depart="128.00" from="-1321" to="-3874"/>
    <trip id="129" depart="129.00" from="-4209" to="8323"/>
    <trip id="130" depart="130.00" from="6418" to="6766"/>
    <trip id="131" depart="131.00" from="-5777" to="-3329"/>
    <trip id="132" depart="132.00" from="5472" to="3702"/>
    <trip id="133" depart="133.00" from="2207" to="9536"/>
    <trip id="134" depart="134.00" from="3075" to="-10449"/>
    <trip id="135" depart="135.00" from="5201" to="-527"/>
    <trip id="136" depart="136.00" from="3114" to="837"/>
    <trip id="137" depart="137.00" from="-2506" to="-2762"/>
    <trip id="138" depart="138.00" from="-206" to="1374"/>
    <trip id="139" depart="139.00" from="-4253" to="2374"/>
    <trip id="140" depart="140.00" from="369" to="-3797"/>
    <trip id="141" depart="141.00" from="2631" to="-4679"/>
    <trip id="142" depart="142.00" from="-9" to="7541"/>
    <trip id="143" depart="143.00" from="5730" to="-2354"/>
    <trip id="144" depart="144.00" from="-7322" to="-4763"/>
    <trip id="145" depart="145.00" from="-10097" to="456"/>
    <trip id="146" depart="146.00" from="2647" to="-4658"/>
    <trip id="147" depart="147.00" from="3899" to="1368"/>
    <trip id="148" depart="148.00" from="-7537" to="-10717"/>
    <trip id="149" depart="149.00" from="-1333" to="6882"/>
    <trip id="150" depart="150.00" from="7324" to="126"/>
    <trip id="151" depart="151.00" from="5476" to="2066"/>
    <trip id="152" depart="152.00" from="-2764" to="-2960"/>
    <trip id="153" depart="153.00" from="-472" to="7324"/>
    <trip id="154" depart="154.00" from="4728" to="6175"/>
    <trip id="155" depart="155.00" from="7271" to="-3858"/>
    <trip id="156" depart="156.00" from="-3892" to="-2506"/>
    <trip id="157" depart="157.00" from="4440" to="6928"/>
    <trip id="158" depart="158.00" from="-6877" to="2654"/>
    <trip id="159" depart="159.00" from="-2799" to="8135"/>
    <trip id="160" depart="160.00" from="5933" to="94"/>
    <trip id="161" depart="161.00" from="515" to="6877"/>
    <trip id="162" depart="162.00" from="-10723" to="3988"/>
    <trip id="163" depart="163.00" from="-521" to="8217"/>
    <trip id="164" depart="164.00" from="4764" to="6285"/>
    <trip id="165" depart="165.00" from="515" to="-4705"/>
    <trip id="166" depart="166.00" from="4665" to="-2628"/>
    <trip id="167" depart="167.00" from="6175" to="6068"/>
    <trip id="168" depart="168.00" from="-3597" to="5431"/>
    <trip id="169" depart="169.00" from="-8326" to="-5437"/>
    <trip id="170" depart="170.00" from="472" to="-4207"/>
    <trip id="171" depart="171.00" from="-10717" to="-3701"/>
    <trip id="172" depart="172.00" from="-519" to="6285"/>
    <trip id="173" depart="173.00" from="90" to="-49"/>
    <trip id="174" depart="174.00" from="2768" to="-79"/>
    <trip id="175" depart="175.00" from="9470" to="11896"/>
    <trip id="176" depart="176.00" from="8330" to="-2762"/>
    <trip id="177" depart="177.00" from="9248" to="-3561"/>
    <trip id="178" depart="178.00" from="8973" to="-4693"/>
    <trip id="179" depart="179.00" from="-207" to="-8949"/>
    <trip id="180" depart="180.00" from="3797" to="-554"/>
    <trip id="181" depart="181.00" from="2168" to="11239"/>
    <trip id="182" depart="182.00" from="-6174" to="1923"/>
    <trip id="183" depart="183.00" from="-3941" to="3750"/>
    <trip id="184" depart="184.00" from="-10082" to="8104"/>
    <trip id="185" depart="185.00" from="10853" to="3857"/>
    <trip id="186" depart="186.00" from="3903" to="3371"/>
    <trip id="187" depart="187.00" from="-5743" to="-1923"/>
    <trip id="188" depart="188.00" from="3124" to="-5767"/>
    <trip id="189" depart="189.00" from="-4759" to="5785"/>
    <trip id="190" depart="190.00" from="3703" to="-538"/>
    <trip id="191" depart="191.00" from="-4729" to="-8135"/>
    <trip id="192" depart="192.00" from="-6605" to="-5216"/>
    <trip id="193" depart="193.00" from="-2360" to="-838"/>
    <trip id="194" depart="194.00" from="8340" to="342"/>
    <trip id="195" depart="195.00" from="7317" to="2629"/>
    <trip id="196" depart="196.00" from="-4679" to="131"/>
    <trip id="197" depart="197.00" from="-10" to="-5180"/>
    <trip id="198" depart="198.00" from="-7541" to="202"/>
    <trip id="199" depart="199.00" from="3076" to="-9584"/>
    <trip id="200" depart="200.00" from="-7791" to="-3874"/>
    <trip id="201" depart="201.00" from="-85" to="7364"/>
    <trip id="202" depart="202.00" from="4728" to="-3497"/>
    <trip id="203" depart="203.00" from="-15" to="11306"/>
    <trip id="204" depart="204.00" from="2628" to="-5809"/>
    <trip id="205" depart="205.00" from="521" to="4266"/>
    <trip id="206" depart="206.00" from="3245" to="-417"/>
    <trip id="207" depart="207.00" from="-3381" to="-1144"/>
    <trip id="208" depart="208.00" from="-3858" to="-9977"/>
    <trip id="209" depart="209.00" from="5737" to="-200"/>
    <trip id="210" depart="210.00" from="-7075" to="2799"/>
    <trip id="211" depart="211.00" from="-3370" to="3595"/>
    <trip id="212" depart="212.00" from="-9249" to="-4299"/>
    <trip id="213" depart="213.00" from="3081" to="-1030"/>
    <trip id="214" depart="214.00" from="42" to="453"/>
    <trip id="215" depart="215.00" from="-206" to="-846"/>
    <trip id="216" depart="216.00" from="-3149" to="8954"/>
    <trip id="217" depart="217.00" from="-9618" to="-1388"/>
    <trip id="218" depart="218.00" from="-3878" to="5785"/>
    <trip id="219" depart="219.00" from="-8320" to="5182"/>
    <trip id="220" depart="220.00" from="3137" to="9577"/>
    <trip id="221" depart="221.00" from="194" to="855"/>
    <trip id="222" depart="222.00" from="6882" to="2614"/>
    <trip id="223" depart="223.00" from="3703" to="10857"/>
    <trip id="224" depart="224.00" from="5461" to="131"/>
    <trip id="225" depart="225.00" from="7080" to="4246"/>
    <trip id="226" depart="226.00" from="-855" to="-456"/>
    <trip id="227" depart="227.00" from="-3864" to="3077"/>
    <trip id="228" depart="228.00" from="4290" to="11422"/>
    <trip id="229" depart="229.00" from="2505" to="-4753"/>
    <trip id="230" depart="230.00" from="-1370" to="-515"/>
    <trip id="231" depart="231.00" from="-4252" to="-5722"/>
    <trip id="232" depart="232.00" from="10855" to="-3114"/>
    <trip id="233" depart="233.00" from="-3712" to="3591"/>
    <trip id="234" depart="234.00" from="3578" to="-170"/>
    <trip id="235" depart="235.00" from="-6882" to="12112"/>
    <trip id="236" depart="236.00" from="-7080" to="-3849"/>
    <trip id="237" depart="237.00" from="-7277" to="7541"/>
    <trip id="238" depart="238.00" from="1665" to="3594"/>
    <trip id="239" depart="239.00" from="5778" to="4430"/>
    <trip id="240" depart="240.00" from="-5993" to="-1030"/>
    <trip id="241" depart="241.00" from="-553" to="4294"/>
    <trip id="242" depart="242.00" from="5765" to="8785"/>
    <trip id="243" depart="243.00" from="-7273" to="4253"/>
    <trip id="244" depart="244.00" from="1140" to="2365"/>
    <trip id="245" depart="245.00" from="-3595" to="-3943"/>
    <trip id="246" depart="246.00" from="-7572" to="-11619"/>
    <trip id="247" depart="247.00" from="-5220" to="3513"/>
    <trip id="248" depart="248.00" from="-6869" to="-3375"/>
    <trip id="249" depart="249.00" from="-8381" to="-2960"/>
    <trip id="250" depart="250.00" from="2370" to="-116"/>
    <trip id="251" depart="251.00" from="-6314" to="1662"/>
    <trip id="252" depart="252.00" from="-10851" to="3105"/>
    <trip id="253" depart="253.00" from="-2609" to="-9532"/>
    <trip id="254" depart="254.00" from="-11586" to="-7324"/>
    <trip id="255" depart="255.00" from="-3556" to="-5745"/>
    <trip id="256" depart="256.00" from="4259" to="-7324"/>
    <trip id="257" depart="257.00" from="420" to="5694"/>
    <trip id="258" depart="258.00" from="-3903" to="-2170"/>
    <trip id="259" depart="259.00" from="-10473" to="1203"/>
    <trip id="260" depart="260.00" from="9977" to="-6281"/>
    <trip id="261" depart="261.00" from="2933" to="4707"/>
    <trip id="262" depart="262.00" from="2955" to="4296"/>
    <trip id="263" depart="263.00" from="842" to="-3758"/>
    <trip id="264" depart="264.00" from="-10476" to="-3282"/>
    <trip id="265" depart="265.00" from="-2358" to="336"/>
    <trip id="266" depart="266.00" from="1217" to="-3931"/>
    <trip id="267" depart="267.00" from="3546" to="4440"/>
    <trip id="268" depart="268.00" from="-3107" to="25"/>
    <trip id="269" depart="269.00" from="3972" to="-2654"/>
    <trip id="270" depart="270.00" from="5213" to="9145"/>
    <trip id="271" depart="271.00" from="-207" to="-1147"/>
    <trip id="272" depart="272.00" from="-4753" to="342"/>
    <trip id="273" depart="273.00" from="8935" to="-7791"/>
    <trip id="274" depart="274.00" from="3643" to="-2066"/>
    <trip id="275" depart="275.00" from="3377" to="2785"/>
    <trip id="276" depart="276.00" from="-194" to="461"/>
    <trip id="277" depart="277.00" from="5741" to="2356"/>
    <trip id="278" depart="278.00" from="-225" to="95"/>
    <trip id="279" depart="279.00" from="453" to="-6175"/>
    <trip id="280" depart="280.00" from="-7538" to="-7063"/>
    <trip id="281" depart="281.00" from="-9477" to="-5939"/>
    <trip id="282" depart="282.00" from="5737" to="5472"/>
    <trip id="283" depart="283.00" from="-204" to="8974"/>
    <trip id="284" depart="284.00" from="2637" to="5598"/>
    <trip id="285" depart="285.00" from="3584" to="-8952"/>
    <trip id="286" depart="286.00" from="3855" to="92"/>
    <trip id="287" depart="287.00" from="-4248" to="5213"/>
    <trip id="288" depart="288.00" from="10851" to="10120"/>
    <trip id="289" depart="289.00" from="-7570" to="3943"/>
    <trip id="290" depart="290.00" from="-4246" to="5931"/>
    <trip id="291" depart="291.00" from="5461" to="-2207"/>
    <trip id="292" depart="292.00" from="6420" to="-4298"/>
    <trip id="293" depart="293.00" from="-8375" to="26"/>
    <trip id="294" depart="294.00" from="-5938" to="-1161"/>
    <trip id="295" depart="295.00" from="5743" to="-3580"/>
    <trip id="296" depart="296.00" from="-3560" to="508"/>
    <trip id="297" depart="297.00" from="-5425" to="6870"/>
    <trip id="298" depart="298.00" from="3554" to="-4763"/>
    <trip id="299" depart="299.00" from="-10254" to="85"/>
    <trip id="300" depart="300.00" from="-1544" to="3858"/>
    <trip id="301" depart="301.00" from="-9" to="4308"/>
    <trip id="302" depart="302.00" from="3377" to="3114"/>
    <trip id="303" depart="303.00" from="-921" to="4923"/>
    <trip id="304" depart="304.00" from="-1676" to="-3968"/>
    <trip id="305" depart="305.00" from="3382" to="-5461"/>
    <trip id="306" depart="306.00" from="1598" to="-9973"/>
    <trip id="307" depart="307.00" from="104" to="-846"/>
    <trip id="308" depart="308.00" from="3966" to="-5769"/>
    <trip id="309" depart="309.00" from="3560" to="-4728"/>
    <trip id="310" depart="310.00" from="-3899" to="-2793"/>
    <trip id="311" depart="311.00" from="-3350" to="-2783"/>
    <trip id="312" depart="312.00" from="10743" to="442"/>
    <trip id="313" depart="313.00" from="-3283" to="-3899"/>
    <trip id="314" depart="314.00" from="-8972" to="3892"/>
    <trip id="315" depart="315.00" from="9397" to="1147"/>
    <trip id="316" depart="316.00" from="-4308" to="-2398"/>
    <trip id="317" depart="317.00" from="-336" to="-4207"/>
    <trip id="318" depart="318.00" from="-3242" to="-10854"/>
    <trip id="319" depart="319.00" from="106" to="-4753"/>
    <trip id="320" depart="320.00" from="9286" to="1374"/>
    <trip id="321" depart="321.00" from="3538" to="-2937"/>
    <trip id="322" depart="322.00" from="5995" to="10345"/>
    <trip id="323" depart="323.00" from="6278" to="1817"/>
    <trip id="324" depart="324.00" from="-8389" to="-8977"/>
    <trip id="325" depart="325.00" from="-3282" to="-1394"/>
    <trip id="326" depart="326.00" from="8342" to="10084"/>
    <trip id="327" depart="327.00" from="5218" to="-80"/>
    <trip id="328" depart="328.00" from="-1327" to="2799"/>
    <trip id="329" depart="329.00" from="-116" to="-3265"/>
    <trip id="330" depart="330.00" from="1214" to="-5432"/>
    <trip id="331" depart="331.00" from="9618" to="-2776"/>
    <trip id="332" depart="332.00" from="4268" to="2382"/>
    <trip id="333" depart="333.00" from="4693" to="-418"/>
    <trip id="334" depart="334.00" from="-9969" to="-9393"/>
    <trip id="335" depart="335.00" from="-7792" to="6174"/>
    <trip id="336" depart="336.00" from="9585" to="-5437"/>
    <trip id="337" depart="337.00" from="2361" to="2506"/>
    <trip id="338" depart="338.00" from="3895" to="848"/>
    <trip id="339" depart="339.00" from="-3544" to="-3859"/>
    <trip id="340" depart="340.00" from="3107" to="-3327"/>
    <trip id="341" depart="341.00" from="-3131" to="-2056"/>
    <trip id="342" depart="342.00" from="-10084" to="-9393"/>
    <trip id="343" depart="343.00" from="1820" to="-5194"/>
    <trip id="344" depart="344.00" from="-3712" to="3712"/>
    <trip id="345" depart="345.00" from="3560" to="-9419"/>
    <trip id="346" depart="346.00" from="3371" to="81"/>
    <trip id="347" depart="347.00" from="4671" to="2776"/>
    <trip id="348" depart="348.00" from="3109" to="8324"/>
    <trip id="349" depart="349.00" from="-734" to="1216"/>
    <trip id="350" depart="350.00" from="2799" to="7558"/>
    <trip id="351" depart="351.00" from="5425" to="-1953"/>
    <trip id="352" depart="352.00" from="-3092" to="-5470"/>
    <trip id="353" depart="353.00" from="3988" to="1684"/>
    <trip id="354" depart="354.00" from="-4422" to="-2869"/>
    <trip id="355" depart="355.00" from="3373" to="3647"/>
    <trip id="356" depart="356.00" from="8374" to="10743"/>
    <trip id="357" depart="357.00" from="-9248" to="-2167"/>
    <trip id="358" depart="358.00" from="-11300" to="-8889"/>
    <trip id="359" depart="359.00" from="-5073" to="-442"/>
    <trip id="360" depart="360.00" from="-1673" to="8976"/>
    <trip id="361" depart="361.00" from="549" to="1820"/>
    <trip id="362" depart="362.00" from="848" to="9977"/>
    <trip id="363" depart="363.00" from="3245" to="-4712"/>
    <trip id="364" depart="364.00" from="-11306" to="4299"/>
    <trip id="365" depart="365.00" from="-840" to="3237"/>
    <trip id="366" depart="366.00" from="7654" to="-3578"/>
    <trip id="367" depart="367.00" from="1675" to="2960"/>
    <trip id="368" depart="368.00" from="-922" to="-2352"/>
    <trip id="369" depart="369.00" from="-5476" to="-5781"/>
    <trip id="370" depart="370.00" from="3238" to="5996"/>
    <trip id="371" depart="371.00" from="-5200" to="3590"/>
    <trip id="372" depart="372.00" from="-4422" to="840"/>
    <trip id="373" depart="373.00" from="5186" to="133"/>
    <trip id="374" depart="374.00" from="-8135" to="-5597"/>
    <trip id="375" depart="375.00" from="-513" to="9281"/>
    <trip id="376" depart="376.00" from="-6869" to="11298"/>
    <trip id="377" depart="377.00" from="9536" to="3268"/>
    <trip id="378" depart="378.00" from="11235" to="-8325"/>
    <trip id="379" depart="379.00" from="-3307" to="-6603"/>
    <trip id="380" depart="380.00" from="4246" to="2782"/>
    <trip id="381" depart="381.00" from="4252" to="-3797"/>
    <trip id="382" depart="382.00" from="1144" to="8127"/>
    <trip id="383" depart="383.00" from="-7757" to="3599"/>
    <trip id="384" depart="384.00" from="-229" to="9286"/>
    <trip id="385" depart="385.00" from="2179" to="-4268"/>
    <trip id="386" depart="386.00" from="-2937" to="1333"/>
    <trip id="387" depart="387.00" from="116" to="-2356"/>
    <trip id="388" depart="388.00" from="9598" to="7757"/>
    <trip id="389" depart="389.00" from="-8336" to="-2772"/>
    <trip id="390" depart="390.00" from="5470" to="10614"/>
    <trip id="391" depart="391.00" from="368" to="11023"/>
    <trip id="392" depart="392.00" from="-4259" to="5730"/>
    <trip id="393" depart="393.00" from="9466" to="-4298"/>
    <trip id="394" depart="394.00" from="11589" to="-7539"/>
    <trip id="395" depart="395.00" from="7792" to="10920"/>
    <trip id="396" depart="396.00" from="6296" to="6285"/>
    <trip id="397" depart="397.00" from="-4268" to="4763"/>
    <trip id="398" depart="398.00" from="-7076" to="8324"/>
    <trip id="399" depart="399.00" from="-9487" to="5470"/>
    <trip id="400" depart="400.00" from="-4307" to="-523"/>
    <trip id="401" depart="401.00" from="168" to="9975"/>
    <trip id="402" depart="402.00" from="-9145" to="-3261"/>
    <trip id="403" depart="403.00" from="10853" to="-5998"/>
    <trip id="404" depart="404.00" from="116" to="1213"/>
    <trip id="405" depart="405.00" from="-8217" to="-5732"/>
    <trip id="406" depart="406.00" from="-3323" to="3597"/>
    <trip id="407" depart="407.00" from="1374" to="-4250"/>
    <trip id="408" depart="408.00" from="4421" to="-133"/>
    <trip id="409" depart="409.00" from="3944" to="371"/>
    <trip id="410" depart="410.00" from="5176" to="-7549"/>
    <trip id="411" depart="411.00" from="3118" to="5470"/>
    <trip id="412" depart="412.00" from="9470" to="10476"/>
    <trip id="413" depart="413.00" from="-11291" to="10851"/>
    <trip id="414" depart="414.00" from="1704" to="6418"/>
    <trip id="415" depart="415.00" from="628" to="-8976"/>
    <trip id="416" depart="416.00" from="10080" to="-9476"/>
    <trip id="417" depart="417.00" from="3712" to="-83"/>
    <trip id="418" depart="418.00" from="3076" to="-3297"/>
    <trip id="419" depart="419.00" from="-8389" to="9249"/>
    <trip id="420" depart="420.00" from="-538" to="3586"/>
    <trip id="421" depart="421.00" from="2929" to="5931"/>
    <trip id="422" depart="422.00" from="5751" to="6172"/>
    <trip id="423" depart="423.00" from="-5939" to="-5607"/>
    <trip id="424" depart="424.00" from="3702" to="432"/>
    <trip id="425" depart="425.00" from="6175" to="-12101"/>
    <trip id="426" depart="426.00" from="-1214" to="2869"/>
    <trip id="427" depart="427.00" from="7791" to="9969"/>
    <trip id="428" depart="428.00" from="3970" to="-8937"/>
    <trip id="429" depart="429.00" from="-1814" to="2937"/>
    <trip id="430" depart="430.00" from="6175" to="-922"/>
    <trip id="431" depart="431.00" from="342" to="7537"/>
    <trip id="432" depart="432.00" from="-11422" to="5031"/>
    <trip id="433" depart="433.00" from="-45" to="-7273"/>
    <trip id="434" depart="434.00" from="-2654" to="11619"/>
    <trip id="435" depart="435.00" from="13" to="49"/>
    <trip id="436" depart="436.00" from="-3112" to="-2128"/>
    <trip id="437" depart="437.00" from="6172" to="2649"/>
    <trip id="438" depart="438.00" from="-3821" to="77"/>
    <trip id="439" depart="439.00" from="-2639" to="-9532"/>
    <trip id="440" depart="440.00" from="-3931" to="-4440"/>
    <trip id="441" depart="441.00" from="-10238" to="5194"/>
    <trip id="442" depart="442.00" from="7279" to="342"/>
    <trip id="443" depart="443.00" from="-2933" to="-90"/>
    <trip id="444" depart="444.00" from="-5470" to="2167"/>
    <trip id="445" depart="445.00" from="2654" to="-842"/>
    <trip id="446" depart="446.00" from="-3894" to="5778"/>
    <trip id="447" depart="447.00" from="-3381" to="-7541"/>
    <trip id="448" depart="448.00" from="-8954" to="-426"/>
    <trip id="449" depart="449.00" from="1374" to="1819"/>
    <trip id="450" depart="450.00" from="96" to="-5214"/>
    <trip id="451" depart="451.00" from="9407" to="3276"/>
    <trip id="452" depart="452.00" from="-4260" to="1665"/>
    <trip id="453" depart="453.00" from="336" to="4248"/>
    <trip id="454" depart="454.00" from="-1147" to="2382"/>
    <trip id="455" depart="455.00" from="-9285" to="7538"/>
    <trip id="456" depart="456.00" from="-4417" to="513"/>
    <trip id="457" depart="457.00" from="2170" to="-6291"/>
    <trip id="458" depart="458.00" from="2639" to="2654"/>
    <trip id="459" depart="459.00" from="3283" to="3859"/>
    <trip id="460" depart="460.00" from="3104" to="5737"/>
    <trip id="461" depart="461.00" from="26" to="7537"/>
    <trip id="462" depart="462.00" from="2795" to="-5472"/>
    <trip id="463" depart="463.00" from="-7786" to="200"/>
    <trip id="464" depart="464.00" from="385" to="-229"/>
    <trip id="465" depart="465.00" from="-455" to="4253"/>
    <trip id="466" depart="466.00" from="-3149" to="-3086"/>
    <trip id="467" depart="467.00" from="10854" to="9284"/>
    <trip id="468" depart="468.00" from="104" to="7757"/>
    <trip id="469" depart="469.00" from="5461" to="-452"/>
    <trip id="470" depart="470.00" from="528" to="10110"/>
    <trip id="471" depart="471.00" from="5029" to="4251"/>
    <trip id="472" depart="472.00" from="-538" to="-2760"/>
    <trip id="473" depart="473.00" from="8973" to="-3130"/>
    <trip id="474" depart="474.00" from="90" to="6174"/>
    <trip id="475" depart="475.00" from="3758" to="9476"/>
    <trip id="476" depart="476.00" from="92" to="5194"/>
    <trip id="477" depart="477.00" from="-5751" to="4764"/>
    <trip id="478" depart="478.00" from="-10337" to="11896"/>
    <trip id="479" depart="479.00" from="-8135" to="3374"/>
    <trip id="480" depart="480.00" from="3245" to="2126"/>
    <trip id="481" depart="481.00" from="5220" to="8375"/>
    <trip id="482" depart="482.00" from="-207" to="-4250"/>
    <trip id="483" depart="483.00" from="-10743" to="6928"/>
    <trip id="484" depart="484.00" from="12104" to="7784"/>
    <trip id="485" depart="485.00" from="-3596" to="-1698"/>
    <trip id="486" depart="486.00" from="527" to="7562"/>
    <trip id="487" depart="487.00" from="-4681" to="-8135"/>
    <trip id="488" depart="488.00" from="-2628" to="842"/>
    <trip id="489" depart="489.00" from="-4705" to="10448"/>
    <trip id="490" depart="490.00" from="-1710" to="7051"/>
    <trip id="491" depart="491.00" from="-2609" to="-9407"/>
    <trip id="492" depart="492.00" from="3239" to="4244"/>
    <trip id="493" depart="493.00" from="8381" to="-8376"/>
    <trip id="494" depart="494.00" from="3905" to="-3297"/>
    <trip id="495" depart="495.00" from="-7076" to="-2376"/>
    <trip id="496" depart="496.00" from="-9145" to="-8129"/>
    <trip id="497" depart="497.00" from="85" to="-11838"/>
    <trip id="498" depart="498.00" from="-5778" to="-922"/>
    <trip id="499" depart="499.00" from="848" to="5993"/>
    <trip id="500" depart="500.00" from="-1819" to="3554"/>