<?xml version="1.0" encoding="UTF-8"?>

<!-- generated on 12/10/20 11:23:16 by Eclipse SUMO netgenerate Version 1.8.0
<configuration xmlns:xsi="http://www.w3.org/2001/XMLSchema-instance" xsi:noNamespaceSchemaLocation="http://sumo.dlr.de/xsd/netgenerateConfiguration.xsd">

    <random_network>
        <rand value="true"/>
        <rand.iterations value="500"/>
        <rand.min-angle value="30"/>
    </random_network>

    <output>
        <output-file value="randtest.net.xml"/>
    </output>

</configuration>
-->

<net version="1.6" junctionCornerDetail="5" limitTurnSpeed="5.50" xmlns:xsi="http://www.w3.org/2001/XMLSchema-instance" xsi:noNamespaceSchemaLocation="http://sumo.dlr.de/xsd/net_file.xsd">

    <location netOffset="2040.94,2648.51" convBoundary="0.00,0.00,4654.92,4864.66" origBoundary="-2040.94,-2648.51,2613.98,2216.15" projParameter="!"/>

    <edge id=":1_0" function="internal">
        <lane id=":1_0_0" index="0" speed="11.26" length="16.20" shape="2039.45,2655.91 2038.83,2652.69 2037.05,2649.55 2034.12,2646.48 2030.03,2643.49"/>
    </edge>
    <edge id=":1_1" function="internal">
        <lane id=":1_1_0" index="0" speed="13.89" length="18.84" shape="2039.45,2655.91 2039.14,2651.58 2038.44,2646.56 2037.53,2641.57 2036.60,2637.31"/>
    </edge>
    <edge id=":1_2" function="internal">
        <lane id=":1_2_0" index="0" speed="7.91" length="5.29" shape="2039.45,2655.91 2039.96,2651.96 2040.63,2650.84"/>
    </edge>
    <edge id=":1_3" function="internal">
        <lane id=":1_3_0" index="0" speed="3.65" length="2.23" shape="2039.45,2655.91 2040.23,2654.70 2040.94,2654.33"/>
    </edge>
    <edge id=":1_16" function="internal">
        <lane id=":1_16_0" index="0" speed="7.91" length="9.11" shape="2040.63,2650.84 2041.61,2649.20 2044.41,2647.60 2048.37,2647.19"/>
    </edge>
    <edge id=":1_17" function="internal">
        <lane id=":1_17_0" index="0" speed="3.65" length="2.44" shape="2040.94,2654.33 2041.03,2654.28 2041.83,2654.67 2042.65,2655.86"/>
    </edge>
    <edge id=":1_4" function="internal">
        <lane id=":1_4_0" index="0" speed="6.39" length="9.04" shape="2048.25,2650.39 2045.77,2650.65 2044.01,2651.65 2042.97,2653.38 2042.65,2655.86"/>
    </edge>
    <edge id=":1_5" function="internal">
        <lane id=":1_5_0" index="0" speed="13.89" length="19.61" shape="2048.25,2650.39 2043.89,2649.60 2038.85,2647.87 2033.96,2645.67 2030.03,2643.49"/>
    </edge>
    <edge id=":1_6" function="internal">
        <lane id=":1_6_0" index="0" speed="10.07" length="18.26" shape="2048.25,2650.39 2044.81,2649.07 2041.33,2645.92 2038.39,2641.73 2036.60,2637.31"/>
    </edge>
    <edge id=":1_7" function="internal">
        <lane id=":1_7_0" index="0" speed="3.65" length="4.67" shape="2048.25,2650.39 2047.08,2649.54 2046.71,2648.73 2047.14,2647.94 2048.37,2647.19"/>
    </edge>
    <edge id=":1_8" function="internal">
        <lane id=":1_8_0" index="0" speed="9.08" length="14.69" shape="2039.72,2636.56 2041.19,2641.12 2043.13,2644.42 2045.52,2646.44 2048.37,2647.19"/>
    </edge>
    <edge id=":1_9" function="internal">
        <lane id=":1_9_0" index="0" speed="13.89" length="19.54" shape="2039.72,2636.56 2040.66,2640.93 2041.59,2646.16 2042.32,2651.42 2042.65,2655.86"/>
    </edge>
    <edge id=":1_10" function="internal">
        <lane id=":1_10_0" index="0" speed="7.43" length="8.28" shape="2039.72,2636.56 2040.50,2642.78 2039.71,2644.64"/>
    </edge>
    <edge id=":1_11" function="internal">
        <lane id=":1_11_0" index="0" speed="3.65" length="2.34" shape="2039.72,2636.56 2039.22,2637.92 2038.53,2638.49"/>
    </edge>
    <edge id=":1_18" function="internal">
        <lane id=":1_18_0" index="0" speed="7.43" length="11.23" shape="2039.71,2644.64 2039.14,2646.00 2035.66,2646.24 2030.03,2643.49"/>
    </edge>
    <edge id=":1_19" function="internal">
        <lane id=":1_19_0" index="0" speed="3.65" length="2.34" shape="2038.53,2638.49 2037.66,2638.29 2036.60,2637.31"/>
    </edge>
    <edge id=":1_12" function="internal">
        <lane id=":1_12_0" index="0" speed="5.47" length="9.79" shape="2031.75,2640.78 2034.57,2642.16 2036.32,2642.04 2037.00,2640.43 2036.60,2637.31"/>
    </edge>
    <edge id=":1_13" function="internal">
        <lane id=":1_13_0" index="0" speed="13.89" length="17.96" shape="2031.75,2640.78 2035.42,2642.89 2039.77,2644.92 2044.26,2646.48 2048.37,2647.19"/>
    </edge>
    <edge id=":1_14" function="internal">
        <lane id=":1_14_0" index="0" speed="12.18" length="19.05" shape="2031.75,2640.78 2035.65,2643.96 2039.14,2648.02 2041.66,2652.23 2042.65,2655.86"/>
    </edge>
    <edge id=":1_15" function="internal">
        <lane id=":1_15_0" index="0" speed="3.65" length="4.67" shape="2031.75,2640.78 2032.33,2642.10 2032.24,2642.99 2031.47,2643.45 2030.03,2643.49"/>
    </edge>
    <edge id=":10081_0" function="internal">
        <lane id=":10081_0_0" index="0" speed="3.65" length="4.67" shape="99.94,2918.71 98.68,2919.42 97.79,2919.41 97.26,2918.69 97.09,2917.26"/>
    </edge>
    <edge id=":10083_0" function="internal">
        <lane id=":10083_0_0" index="0" speed="3.65" length="4.67" shape="100.97,2678.78 99.91,2677.80 99.65,2676.95 100.17,2676.22 101.48,2675.63"/>
    </edge>
    <edge id=":10095_0" function="internal">
        <lane id=":10095_0_0" index="0" speed="3.65" length="4.67" shape="129.26,2505.18 129.52,2503.76 130.10,2503.08 130.99,2503.14 132.20,2503.93"/>
    </edge>
    <edge id=":10102_0" function="internal">
        <lane id=":10102_0_0" index="0" speed="3.65" length="4.67" shape="288.47,2165.21 287.03,2165.17 286.27,2164.71 286.18,2163.82 286.77,2162.50"/>
    </edge>
    <edge id=":10106_0" function="internal">
        <lane id=":10106_0_0" index="0" speed="6.12" length="6.67" shape="225.96,2014.18 224.32,2013.46 223.20,2012.39 222.59,2010.96 222.49,2009.18"/>
    </edge>
    <edge id=":10106_1" function="internal">
        <lane id=":10106_1_0" index="0" speed="3.93" length="2.22" shape="225.68,2009.43 225.71,2010.03 225.92,2010.50 226.29,2010.86 226.84,2011.10"/>
    </edge>
    <edge id=":10109_0" function="internal">
        <lane id=":10109_0_0" index="0" speed="3.65" length="4.67" shape="-0.35,1758.70 -1.35,1757.66 -1.56,1756.79 -1.00,1756.10 0.35,1755.58"/>
    </edge>
    <edge id=":10111_0" function="internal">
        <lane id=":10111_0_0" index="0" speed="3.65" length="4.67" shape="85.59,1639.90 85.39,1638.47 85.72,1637.64 86.58,1637.41 87.98,1637.77"/>
    </edge>
    <edge id=":10115_0" function="internal">
        <lane id=":10115_0_0" index="0" speed="3.65" length="4.67" shape="2752.66,454.10 2753.73,453.14 2754.61,452.95 2755.28,453.54 2755.75,454.90"/>
    </edge>
    <edge id=":10119_0" function="internal">
        <lane id=":10119_0_0" index="0" speed="3.65" length="4.67" shape="2810.63,661.17 2811.84,661.96 2812.25,662.75 2811.86,663.56 2810.67,664.37"/>
    </edge>
    <edge id=":10131_0" function="internal">
        <lane id=":10131_0_0" index="0" speed="3.65" length="4.67" shape="2777.74,850.69 2777.45,852.10 2776.86,852.77 2775.97,852.71 2774.77,851.90"/>
    </edge>
    <edge id=":10237_0" function="internal">
        <lane id=":10237_0_0" index="0" speed="6.35" length="13.03" shape="1738.39,463.44 1737.38,459.51 1738.03,457.14 1740.35,456.35 1744.34,457.13"/>
    </edge>
    <edge id=":10237_1" function="internal">
        <lane id=":10237_1_0" index="0" speed="4.05" length="4.34" shape="1743.35,460.17 1742.02,459.91 1741.25,460.18 1741.03,460.97 1741.37,462.28"/>
    </edge>
    <edge id=":10253_0" function="internal">
        <lane id=":10253_0_0" index="0" speed="3.65" length="4.67" shape="1571.81,655.07 1570.40,654.79 1569.72,654.20 1569.79,653.31 1570.60,652.11"/>
    </edge>
    <edge id=":1027_0" function="internal">
        <lane id=":1027_0_0" index="0" speed="6.88" length="13.75" shape="1822.81,2650.03 1821.15,2648.00 1818.82,2647.90 1815.82,2649.73 1812.13,2653.50"/>
    </edge>
    <edge id=":1027_1" function="internal">
        <lane id=":1027_1_0" index="0" speed="9.31" length="17.88" shape="1822.81,2650.03 1820.65,2647.20 1817.25,2645.75 1812.63,2645.69 1806.77,2647.00"/>
    </edge>
    <edge id=":1027_2" function="internal">
        <lane id=":1027_2_0" index="0" speed="13.89" length="17.21" shape="1822.81,2650.03 1821.04,2646.34 1818.87,2642.38 1816.52,2638.53 1814.19,2635.17"/>
    </edge>
    <edge id=":1027_3" function="internal">
        <lane id=":1027_3_0" index="0" speed="3.65" length="2.34" shape="1822.81,2650.03 1823.06,2648.61 1823.63,2647.93"/>
    </edge>
    <edge id=":1027_16" function="internal">
        <lane id=":1027_16_0" index="0" speed="3.65" length="2.34" shape="1823.63,2647.93 1824.52,2647.97 1825.74,2648.75"/>
    </edge>
    <edge id=":1027_4" function="internal">
        <lane id=":1027_4_0" index="0" speed="13.89" length="17.95" shape="1816.74,2633.25 1819.13,2636.71 1821.62,2640.78 1823.91,2644.96 1825.74,2648.75"/>
    </edge>
    <edge id=":1027_5" function="internal">
        <lane id=":1027_5_0" index="0" speed="10.86" length="6.10" shape="1816.74,2633.25 1818.67,2637.46 1818.63,2638.92"/>
    </edge>
    <edge id=":1027_6" function="internal">
        <lane id=":1027_6_0" index="0" speed="8.56" length="5.52" shape="1816.74,2633.25 1818.56,2637.35 1818.28,2638.34"/>
    </edge>
    <edge id=":1027_7" function="internal">
        <lane id=":1027_7_0" index="0" speed="3.65" length="2.34" shape="1816.74,2633.25 1816.83,2634.69 1816.43,2635.49"/>
    </edge>
    <edge id=":1027_17" function="internal">
        <lane id=":1027_17_0" index="0" speed="10.86" length="16.36" shape="1818.63,2638.92 1818.55,2642.24 1816.37,2647.58 1812.13,2653.50"/>
    </edge>
    <edge id=":1027_18" function="internal">
        <lane id=":1027_18_0" index="0" speed="8.56" length="15.21" shape="1818.28,2638.34 1817.51,2641.01 1813.57,2644.23 1806.77,2647.00"/>
    </edge>
    <edge id=":1027_19" function="internal">
        <lane id=":1027_19_0" index="0" speed="3.65" length="2.34" shape="1816.43,2635.49 1815.55,2635.65 1814.19,2635.17"/>
    </edge>
    <edge id=":1027_8" function="internal">
        <lane id=":1027_8_0" index="0" speed="7.21" length="14.29" shape="1805.82,2643.94 1810.90,2641.98 1813.98,2639.87 1815.08,2637.60 1814.19,2635.17"/>
    </edge>
    <edge id=":1027_9" function="internal">
        <lane id=":1027_9_0" index="0" speed="10.41" length="22.58" shape="1805.82,2643.94 1812.95,2642.42 1818.64,2642.72 1822.91,2644.83 1825.74,2648.75"/>
    </edge>
    <edge id=":1027_10" function="internal">
        <lane id=":1027_10_0" index="0" speed="6.42" length="15.51" shape="1805.82,2643.94 1809.95,2643.96 1812.80,2646.20 1813.74,2649.70 1812.13,2653.50"/>
    </edge>
    <edge id=":1027_11" function="internal">
        <lane id=":1027_11_0" index="0" speed="3.65" length="4.67" shape="1805.82,2643.94 1807.20,2644.35 1807.82,2645.00 1807.68,2645.88 1806.77,2647.00"/>
    </edge>
    <edge id=":1027_12" function="internal">
        <lane id=":1027_12_0" index="0" speed="5.49" length="10.83" shape="1809.69,2651.43 1811.81,2648.44 1812.03,2646.70 1810.35,2646.22 1806.77,2647.00"/>
    </edge>
    <edge id=":1027_13" function="internal">
        <lane id=":1027_13_0" index="0" speed="9.81" length="18.14" shape="1809.69,2651.43 1813.30,2646.49 1815.25,2642.14 1815.55,2638.37 1814.19,2635.17"/>
    </edge>
    <edge id=":1027_14" function="internal">
        <lane id=":1027_14_0" index="0" speed="8.31" length="20.74" shape="1809.69,2651.43 1814.95,2646.25 1819.38,2644.07 1822.98,2644.90 1825.74,2648.75"/>
    </edge>
    <edge id=":1027_15" function="internal">
        <lane id=":1027_15_0" index="0" speed="3.65" length="4.67" shape="1809.69,2651.43 1811.08,2651.03 1811.95,2651.25 1812.30,2652.07 1812.13,2653.50"/>
    </edge>
    <edge id=":10294_0" function="internal">
        <lane id=":10294_0_0" index="0" speed="3.65" length="4.67" shape="1865.34,285.42 1866.29,284.33 1867.13,284.03 1867.87,284.53 1868.51,285.83"/>
    </edge>
    <edge id=":103_0" function="internal">
        <lane id=":103_0_0" index="0" speed="5.55" length="9.42" shape="2535.88,2451.42 2535.35,2448.56 2534.19,2447.18 2532.39,2447.30 2529.97,2448.91"/>
    </edge>
    <edge id=":103_1" function="internal">
        <lane id=":103_1_0" index="0" speed="13.89" length="19.59" shape="2535.88,2451.42 2536.08,2446.95 2537.02,2441.68 2538.54,2436.57 2540.46,2432.57"/>
    </edge>
    <edge id=":103_2" function="internal">
        <lane id=":103_2_0" index="0" speed="8.23" length="17.66" shape="2535.88,2451.42 2536.23,2446.09 2538.02,2442.54 2541.26,2440.78 2545.93,2440.80"/>
    </edge>
    <edge id=":103_3" function="internal">
        <lane id=":103_3_0" index="0" speed="3.65" length="4.67" shape="2535.88,2451.42 2536.61,2450.17 2537.38,2449.73 2538.21,2450.08 2539.07,2451.23"/>
    </edge>
    <edge id=":103_4" function="internal">
        <lane id=":103_4_0" index="0" speed="6.78" length="11.61" shape="2545.39,2443.96 2542.44,2443.98 2540.41,2445.20 2539.28,2447.61 2539.07,2451.23"/>
    </edge>
    <edge id=":103_5" function="internal">
        <lane id=":103_5_0" index="0" speed="12.42" length="16.73" shape="2545.39,2443.96 2541.41,2443.75 2537.51,2444.51 2533.69,2446.23 2529.97,2448.91"/>
    </edge>
    <edge id=":103_6" function="internal">
        <lane id=":103_6_0" index="0" speed="7.47" length="16.12" shape="2545.39,2443.96 2540.88,2442.53 2538.55,2440.16 2538.41,2436.84 2540.46,2432.57"/>
    </edge>
    <edge id=":103_7" function="internal">
        <lane id=":103_7_0" index="0" speed="3.65" length="4.67" shape="2545.39,2443.96 2544.34,2442.97 2544.08,2442.11 2544.61,2441.39 2545.93,2440.80"/>
    </edge>
    <edge id=":103_8" function="internal">
        <lane id=":103_8_0" index="0" speed="5.79" length="9.15" shape="2543.13,2434.34 2541.96,2436.76 2542.04,2438.65 2543.36,2439.99 2545.93,2440.80"/>
    </edge>
    <edge id=":103_9" function="internal">
        <lane id=":103_9_0" index="0" speed="13.89" length="17.58" shape="2543.13,2434.34 2541.29,2438.03 2539.95,2442.47 2539.19,2447.07 2539.07,2451.23"/>
    </edge>
    <edge id=":103_10" function="internal">
        <lane id=":103_10_0" index="0" speed="13.89" length="19.67" shape="2543.13,2434.34 2540.44,2437.92 2536.93,2441.97 2533.24,2445.84 2529.97,2448.91"/>
    </edge>
    <edge id=":103_11" function="internal">
        <lane id=":103_11_0" index="0" speed="3.65" length="2.34" shape="2543.13,2434.34 2541.80,2434.90 2540.91,2434.79"/>
    </edge>
    <edge id=":103_16" function="internal">
        <lane id=":103_16_0" index="0" speed="3.65" length="2.34" shape="2540.91,2434.79 2540.46,2434.01 2540.46,2432.57"/>
    </edge>
    <edge id=":103_12" function="internal">
        <lane id=":103_12_0" index="0" speed="13.89" length="18.79" shape="2527.89,2446.48 2531.06,2443.52 2534.56,2439.87 2537.86,2436.04 2540.46,2432.57"/>
    </edge>
    <edge id=":103_13" function="internal">
        <lane id=":103_13_0" index="0" speed="13.39" length="7.52" shape="2527.89,2446.48 2532.20,2443.39 2534.22,2442.49"/>
    </edge>
    <edge id=":103_14" function="internal">
        <lane id=":103_14_0" index="0" speed="7.38" length="6.41" shape="2527.89,2446.48 2532.48,2443.44 2533.38,2443.38"/>
    </edge>
    <edge id=":103_15" function="internal">
        <lane id=":103_15_0" index="0" speed="3.65" length="2.34" shape="2527.89,2446.48 2529.32,2446.30 2530.14,2446.65"/>
    </edge>
    <edge id=":103_17" function="internal">
        <lane id=":103_17_0" index="0" speed="13.39" length="12.02" shape="2534.22,2442.49 2536.65,2441.41 2541.22,2440.55 2545.93,2440.80"/>
    </edge>
    <edge id=":103_18" function="internal">
        <lane id=":103_18_0" index="0" speed="7.38" length="11.41" shape="2533.38,2443.38 2535.87,2443.22 2538.07,2445.81 2539.07,2451.23"/>
    </edge>
    <edge id=":103_19" function="internal">
        <lane id=":103_19_0" index="0" speed="3.65" length="2.34" shape="2530.14,2446.65 2530.36,2447.52 2529.97,2448.91"/>
    </edge>
    <edge id=":10336_0" function="internal">
        <lane id=":10336_0_0" index="0" speed="3.65" length="4.67" shape="1736.68,284.06 1736.87,282.63 1737.41,281.91 1738.30,281.92 1739.55,282.64"/>
    </edge>
    <edge id=":10338_0" function="internal">
        <lane id=":10338_0_0" index="0" speed="3.65" length="4.67" shape="2445.24,341.92 2445.60,343.31 2445.37,344.18 2444.54,344.51 2443.11,344.31"/>
    </edge>
    <edge id=":10342_0" function="internal">
        <lane id=":10342_0_0" index="0" speed="3.65" length="4.67" shape="2497.35,125.03 2498.73,125.47 2499.33,126.13 2499.17,127.01 2498.24,128.11"/>
    </edge>
    <edge id=":10344_0" function="internal">
        <lane id=":10344_0_0" index="0" speed="3.65" length="4.67" shape="2408.01,-0.93 2409.36,-1.44 2410.24,-1.30 2410.66,-0.51 2410.62,0.93"/>
    </edge>
    <edge id=":10456_0" function="internal">
        <lane id=":10456_0_0" index="0" speed="3.65" length="4.67" shape="2926.85,1960.60 2926.49,1962.00 2925.87,1962.64 2924.98,1962.53 2923.83,1961.66"/>
    </edge>
    <edge id=":10472_0" function="internal">
        <lane id=":10472_0_0" index="0" speed="3.65" length="4.67" shape="3045.48,1905.37 3046.15,1906.65 3046.12,1907.54 3045.38,1908.05 3043.95,1908.17"/>
    </edge>
    <edge id=":10475_0" function="internal">
        <lane id=":10475_0_0" index="0" speed="3.65" length="4.67" shape="3389.50,1634.44 3390.44,1635.54 3390.60,1636.42 3390.00,1637.08 3388.63,1637.52"/>
    </edge>
    <edge id=":10477_0" function="internal">
        <lane id=":10477_0_0" index="0" speed="3.65" length="4.67" shape="3412.25,1440.24 3413.18,1441.33 3413.35,1442.21 3412.74,1442.87 3411.37,1443.31"/>
    </edge>
    <edge id=":10489_0" function="internal">
        <lane id=":10489_0_0" index="0" speed="3.65" length="4.67" shape="3217.72,1143.35 3218.51,1142.14 3219.31,1141.73 3220.11,1142.13 3220.92,1143.32"/>
    </edge>
    <edge id=":105_0" function="internal">
        <lane id=":105_0_0" index="0" speed="13.89" length="12.45" shape="2598.22,3184.26 2595.03,3185.30 2592.38,3186.41 2589.85,3187.77 2587.02,3189.57"/>
    </edge>
    <edge id=":105_1" function="internal">
        <lane id=":105_1_0" index="0" speed="8.50" length="5.19" shape="2598.22,3184.26 2594.81,3184.77 2593.11,3184.41"/>
    </edge>
    <edge id=":105_2" function="internal">
        <lane id=":105_2_0" index="0" speed="3.65" length="2.34" shape="2598.22,3184.26 2596.84,3183.84 2596.23,3183.18"/>
    </edge>
    <edge id=":105_9" function="internal">
        <lane id=":105_9_0" index="0" speed="8.50" length="8.11" shape="2593.11,3184.41 2591.80,3184.13 2589.21,3182.36 2587.02,3179.46"/>
    </edge>
    <edge id=":105_10" function="internal">
        <lane id=":105_10_0" index="0" speed="3.65" length="2.34" shape="2596.23,3183.18 2596.39,3182.30 2597.31,3181.19"/>
    </edge>
    <edge id=":105_3" function="internal">
        <lane id=":105_3_0" index="0" speed="7.08" length="8.96" shape="2589.80,3177.87 2591.29,3179.86 2593.03,3181.08 2595.04,3181.52 2597.31,3181.19"/>
    </edge>
    <edge id=":105_4" function="internal">
        <lane id=":105_4_0" index="0" speed="8.02" length="13.51" shape="2589.80,3177.87 2591.16,3181.28 2591.14,3184.37 2589.77,3187.13 2587.02,3189.57"/>
    </edge>
    <edge id=":105_5" function="internal">
        <lane id=":105_5_0" index="0" speed="3.65" length="4.67" shape="2589.80,3177.87 2589.70,3179.31 2589.20,3180.05 2588.31,3180.10 2587.02,3179.46"/>
    </edge>
    <edge id=":105_6" function="internal">
        <lane id=":105_6_0" index="0" speed="6.52" length="8.60" shape="2585.25,3186.90 2587.00,3185.35 2587.88,3183.59 2587.88,3181.63 2587.02,3179.46"/>
    </edge>
    <edge id=":105_7" function="internal">
        <lane id=":105_7_0" index="0" speed="13.89" length="13.40" shape="2585.25,3186.90 2588.22,3185.04 2591.05,3183.54 2593.99,3182.30 2597.31,3181.19"/>
    </edge>
    <edge id=":105_8" function="internal">
        <lane id=":105_8_0" index="0" speed="3.65" length="2.34" shape="2585.25,3186.90 2586.69,3186.90 2587.47,3187.35"/>
    </edge>
    <edge id=":105_11" function="internal">
        <lane id=":105_11_0" index="0" speed="3.65" length="2.34" shape="2587.47,3187.35 2587.58,3188.24 2587.02,3189.57"/>
    </edge>
    <edge id=":10613_0" function="internal">
        <lane id=":10613_0_0" index="0" speed="3.65" length="4.67" shape="2610.68,2029.42 2609.94,2030.65 2609.16,2031.09 2608.34,2030.72 2607.49,2029.56"/>
    </edge>
    <edge id=":10722_0" function="internal">
        <lane id=":10722_0_0" index="0" speed="6.19" length="5.83" shape="4211.83,2731.52 4212.65,2732.82 4213.00,2734.16 4212.88,2735.54 4212.30,2736.95"/>
    </edge>
    <edge id=":10722_1" function="internal">
        <lane id=":10722_1_0" index="0" speed="3.96" length="1.94" shape="4209.52,2735.37 4209.71,2734.90 4209.75,2734.44 4209.64,2733.99 4209.36,2733.56"/>
    </edge>
    <edge id=":10742_0" function="internal">
        <lane id=":10742_0_0" index="0" speed="3.93" length="2.15" shape="4336.42,2811.66 4336.09,2811.20 4335.67,2810.91 4335.18,2810.80 4334.61,2810.87"/>
    </edge>
    <edge id=":10742_1" function="internal">
        <lane id=":10742_1_0" index="0" speed="6.13" length="6.45" shape="4333.81,2807.78 4335.51,2807.57 4336.98,2807.89 4338.23,2808.75 4339.24,2810.13"/>
    </edge>
    <edge id=":10849_0" function="internal">
        <lane id=":10849_0_0" index="0" speed="6.10" length="7.09" shape="4191.30,2489.04 4191.84,2490.88 4191.70,2492.50 4190.88,2493.92 4189.39,2495.12"/>
    </edge>
    <edge id=":10849_1" function="internal">
        <lane id=":10849_1_0" index="0" speed="3.91" length="2.36" shape="4187.75,2492.37 4188.24,2491.97 4188.51,2491.50 4188.56,2490.96 4188.38,2490.35"/>
    </edge>
    <edge id=":10852_0" function="internal">
        <lane id=":10852_0_0" index="0" speed="6.45" length="13.99" shape="4235.95,2165.61 4240.36,2166.09 4242.42,2167.60 4242.13,2170.13 4239.48,2173.70"/>
    </edge>
    <edge id=":10852_1" function="internal">
        <lane id=":10852_1_0" index="0" speed="4.10" length="4.66" shape="4237.14,2171.50 4238.03,2170.32 4238.13,2169.47 4237.44,2168.97 4235.97,2168.81"/>
    </edge>
    <edge id=":10856_0" function="internal">
        <lane id=":10856_0_0" index="0" speed="3.65" length="4.67" shape="3946.58,2104.93 3946.72,2106.36 3946.36,2107.18 3945.49,2107.37 3944.11,2106.95"/>
    </edge>
    <edge id=":10862_0" function="internal">
        <lane id=":10862_0_0" index="0" speed="3.65" length="4.67" shape="3768.45,1764.29 3768.86,1762.90 3769.51,1762.29 3770.39,1762.44 3771.51,1763.35"/>
    </edge>
    <edge id=":10864_0" function="internal">
        <lane id=":10864_0_0" index="0" speed="3.65" length="4.67" shape="3901.44,1852.59 3902.75,1851.98 3903.64,1852.06 3904.11,1852.82 3904.16,1854.26"/>
    </edge>
    <edge id=":10887_0" function="internal">
        <lane id=":10887_0_0" index="0" speed="3.65" length="4.67" shape="3573.56,1920.70 3574.15,1919.39 3574.87,1918.86 3575.73,1919.12 3576.72,1920.17"/>
    </edge>
    <edge id=":10919_0" function="internal">
        <lane id=":10919_0_0" index="0" speed="3.65" length="4.67" shape="3468.04,2162.55 3466.62,2162.29 3465.94,2161.71 3465.99,2160.81 3466.78,2159.61"/>
    </edge>
    <edge id=":11_0" function="internal">
        <lane id=":11_0_0" index="0" speed="13.89" length="14.99" shape="1834.57,2364.41 1833.47,2360.80 1832.25,2357.23 1830.71,2353.84 1828.66,2350.73"/>
    </edge>
    <edge id=":11_1" function="internal">
        <lane id=":11_1_0" index="0" speed="7.39" length="7.01" shape="1834.57,2364.41 1833.55,2358.71 1833.97,2357.56"/>
    </edge>
    <edge id=":11_2" function="internal">
        <lane id=":11_2_0" index="0" speed="3.65" length="2.34" shape="1834.57,2364.41 1834.98,2363.02 1835.63,2362.41"/>
    </edge>
    <edge id=":11_9" function="internal">
        <lane id=":11_9_0" index="0" speed="7.39" length="11.42" shape="1833.97,2357.56 1834.72,2355.48 1838.07,2354.72 1843.60,2356.41"/>
    </edge>
    <edge id=":11_10" function="internal">
        <lane id=":11_10_0" index="0" speed="3.65" length="2.34" shape="1835.63,2362.41 1836.51,2362.56 1837.63,2363.48"/>
    </edge>
    <edge id=":11_3" function="internal">
        <lane id=":11_3_0" index="0" speed="5.51" length="9.54" shape="1842.30,2359.34 1839.44,2358.46 1837.71,2358.86 1837.10,2360.53 1837.63,2363.48"/>
    </edge>
    <edge id=":11_4" function="internal">
        <lane id=":11_4_0" index="0" speed="13.89" length="16.26" shape="1842.30,2359.34 1838.68,2357.69 1834.95,2355.73 1831.48,2353.43 1828.66,2350.73"/>
    </edge>
    <edge id=":11_5" function="internal">
        <lane id=":11_5_0" index="0" speed="3.65" length="4.67" shape="1842.30,2359.34 1841.53,2358.12 1841.49,2357.23 1842.18,2356.66 1843.60,2356.41"/>
    </edge>
    <edge id=":11_6" function="internal">
        <lane id=":11_6_0" index="0" speed="13.89" length="14.78" shape="1831.15,2348.72 1833.78,2351.27 1836.84,2353.26 1840.17,2354.90 1843.60,2356.41"/>
    </edge>
    <edge id=":11_7" function="internal">
        <lane id=":11_7_0" index="0" speed="13.89" length="16.21" shape="1831.15,2348.72 1833.28,2351.99 1835.02,2355.76 1836.45,2359.70 1837.63,2363.48"/>
    </edge>
    <edge id=":11_8" function="internal">
        <lane id=":11_8_0" index="0" speed="3.65" length="2.50" shape="1831.15,2348.72 1831.28,2350.15 1830.91,2350.97 1830.76,2351.00"/>
    </edge>
    <edge id=":11_11" function="internal">
        <lane id=":11_11_0" index="0" speed="3.65" length="2.18" shape="1830.76,2351.00 1830.04,2351.16 1828.66,2350.73"/>
    </edge>
    <edge id=":11024_0" function="internal">
        <lane id=":11024_0_0" index="0" speed="3.65" length="4.67" shape="3469.45,4296.31 3468.02,4296.19 3467.28,4295.68 3467.25,4294.78 3467.92,4293.50"/>
    </edge>
    <edge id=":11234_0" function="internal">
        <lane id=":11234_0_0" index="0" speed="6.90" length="3.36" shape="4530.36,3183.58 4530.77,3184.48 4530.95,3185.15 4530.92,3185.84 4530.71,3186.81"/>
    </edge>
    <edge id=":11234_1" function="internal">
        <lane id=":11234_1_0" index="0" speed="4.34" length="1.12" shape="4527.60,3186.05 4527.67,3185.73 4527.68,3185.50 4527.62,3185.28 4527.48,3184.98"/>
    </edge>
    <edge id=":11238_0" function="internal">
        <lane id=":11238_0_0" index="0" speed="3.65" length="4.67" shape="4654.64,2940.63 4655.96,2941.21 4656.49,2941.92 4656.24,2942.78 4655.19,2943.78"/>
    </edge>
    <edge id=":11290_0" function="internal">
        <lane id=":11290_0_0" index="0" speed="3.65" length="4.67" shape="4549.97,2834.16 4551.35,2833.75 4552.22,2833.95 4552.58,2834.76 4552.44,2836.20"/>
    </edge>
    <edge id=":11297_0" function="internal">
        <lane id=":11297_0_0" index="0" speed="3.65" length="4.67" shape="1525.07,4402.42 1524.28,4403.62 1523.49,4404.03 1522.68,4403.64 1521.87,4402.45"/>
    </edge>
    <edge id=":11299_0" function="internal">
        <lane id=":11299_0_0" index="0" speed="3.65" length="4.67" shape="1335.35,4413.99 1333.91,4414.03 1333.12,4413.61 1332.99,4412.72 1333.51,4411.38"/>
    </edge>
    <edge id=":11305_0" function="internal">
        <lane id=":11305_0_0" index="0" speed="3.65" length="4.67" shape="1363.44,4257.64 1362.37,4256.67 1362.09,4255.82 1362.61,4255.09 1363.91,4254.48"/>
    </edge>
    <edge id=":11314_0" function="internal">
        <lane id=":11314_0_0" index="0" speed="3.65" length="4.67" shape="1636.02,4663.58 1634.60,4663.84 1633.75,4663.55 1633.48,4662.69 1633.78,4661.28"/>
    </edge>
    <edge id=":1135_0" function="internal">
        <lane id=":1135_0_0" index="0" speed="13.89" length="22.59" shape="1377.73,1727.63 1374.83,1731.56 1371.92,1737.21 1369.55,1743.15 1368.24,1747.92"/>
    </edge>
    <edge id=":1135_1" function="internal">
        <lane id=":1135_1_0" index="0" speed="13.89" length="24.65" shape="1377.73,1727.63 1360.18,1744.94"/>
    </edge>
    <edge id=":1135_2" function="internal">
        <lane id=":1135_2_0" index="0" speed="13.89" length="6.94" shape="1377.73,1727.63 1373.58,1730.40 1371.81,1731.22"/>
    </edge>
    <edge id=":1135_3" function="internal">
        <lane id=":1135_3_0" index="0" speed="7.38" length="6.96" shape="1377.73,1727.63 1373.21,1730.99 1371.89,1731.14"/>
    </edge>
    <edge id=":1135_4" function="internal">
        <lane id=":1135_4_0" index="0" speed="3.65" length="2.34" shape="1377.73,1727.63 1376.31,1727.87 1375.47,1727.57"/>
    </edge>
    <edge id=":1135_25" function="internal">
        <lane id=":1135_25_0" index="0" speed="13.89" length="16.28" shape="1371.81,1731.22 1367.61,1733.17 1361.37,1735.37 1356.46,1736.43"/>
    </edge>
    <edge id=":1135_26" function="internal">
        <lane id=":1135_26_0" index="0" speed="7.38" length="11.15" shape="1371.89,1731.14 1369.81,1731.39 1367.55,1728.82 1366.42,1723.30"/>
    </edge>
    <edge id=":1135_27" function="internal">
        <lane id=":1135_27_0" index="0" speed="3.65" length="2.34" shape="1375.47,1727.57 1375.21,1726.71 1375.53,1725.31"/>
    </edge>
    <edge id=":1135_5" function="internal">
        <lane id=":1135_5_0" index="0" speed="5.53" length="9.47" shape="1369.61,1723.04 1370.20,1725.93 1371.39,1727.27 1373.16,1727.07 1375.53,1725.31"/>
    </edge>
    <edge id=":1135_6" function="internal">
        <lane id=":1135_6_0" index="0" speed="13.89" length="24.94" shape="1369.61,1723.04 1369.68,1728.34 1369.37,1735.50 1368.84,1742.65 1368.24,1747.92"/>
    </edge>
    <edge id=":1135_7" function="internal">
        <lane id=":1135_7_0" index="0" speed="13.89" length="24.58" shape="1369.61,1723.04 1369.37,1728.69 1367.71,1734.22 1364.65,1739.63 1360.18,1744.94"/>
    </edge>
    <edge id=":1135_8" function="internal">
        <lane id=":1135_8_0" index="0" speed="9.70" length="21.38" shape="1369.61,1723.04 1369.16,1728.48 1366.81,1732.52 1362.58,1735.17 1356.46,1736.43"/>
    </edge>
    <edge id=":1135_9" function="internal">