<?xml version="1.0" encoding="UTF-8"?>

<!-- generated on 03/18/20 23:23:19 by Eclipse SUMO duarouter Version 1.3.1
<configuration xmlns:xsi="http://www.w3.org/2001/XMLSchema-instance" xsi:noNamespaceSchemaLocation="http://sumo.dlr.de/xsd/duarouterConfiguration.xsd">

    <input>
        <net-file value="C:/Users/weiminj/Desktop/Webots_Mhafuz/merging_mf_more_congested/merging_mf_more_congested/worlds/LinkonMKZmyMap_net/sumo.net.xml"/>
        <route-files value="C:/Users/weiminj/Desktop/Webots_Mhafuz/merging_mf_more_congested/merging_mf_more_congested/worlds/LinkonMKZmyMap_net/sumo.flow.xml"/>
    </input>

    <output>
        <output-file value="C:/Users/weiminj/Desktop/Webots_Mhafuz/merging_mf_more_congested/merging_mf_more_congested/worlds/LinkonMKZmyMap_net/sumo.rou.xml"/>
        <alternatives-output value="C:/Users/weiminj/Desktop/Webots_Mhafuz/merging_mf_more_congested/merging_mf_more_congested/worlds/LinkonMKZmyMap_net/sumo.rou.alt.xml"/>
    </output>

    <report>
        <ignore-errors value="true"/>
    </report>

</configuration>
-->

<routes xmlns:xsi="http://www.w3.org/2001/XMLSchema-instance" xsi:noNamespaceSchemaLocation="http://sumo.dlr.de/xsd/routes_file.xsd">
    <vehicle id="1.0" depart="0.00" departLane="random">
        <route edges="334781289_2 37434590 37434591_1 37434591_3 37434591_4 37434591_2 37435724 -119097"/>
    </vehicle>
    <vehicle id="1.1" depart="0.46" departLane="random">
        <route edges="334781289_2 37434590 37434591_1 37434591_3 37434591_4 37434591_2 37435724 -119097"/>
    </vehicle>
    <vehicle id="1.2" depart="0.92" departLane="random">
        <route edges="334781289_2 37434590 37434591_1 37434591_3 37434591_4 37434591_2 37435724 -119097"/>
    </vehicle>
    <vehicle id="1.3" depart="1.38" departLane="random">
        <route edges="334781289_2 37434590 37434591_1 37434591_3 37434591_4 37434591_2 37435724 -119097"/>
    </vehicle>
    <vehicle id="1.4" depart="1.84" departLane="random">
        <route edges="334781289_2 37434590 37434591_1 37434591_3 37434591_4 37434591_2 37435724 -119097"/>
    </vehicle>
    <vehicle id="1.5" depart="2.31" departLane="random">
        <route edges="334781289_2 37434590 37434591_1 37434591_3 37434591_4 37434591_2 37435724 -119097"/>
    </vehicle>
    <vehicle id="1.6" depart="2.77" departLane="random">
        <route edges="334781289_2 37434590 37434591_1 37434591_3 37434591_4 37434591_2 37435724 -119097"/>
    </vehicle>
    <vehicle id="1.7" depart="3.23" departLane="random">
        <route edges="334781289_2 37434590 37434591_1 37434591_3 37434591_4 37434591_2 37435724 -119097"/>
    </vehicle>
    <vehicle id="1.8" depart="3.69" departLane="random">
        <route edges="334781289_2 37434590 37434591_1 37434591_3 37434591_4 37434591_2 37435724 -119097"/>
    </vehicle>
    <vehicle id="1.9" depart="4.15" departLane="random">
        <route edges="334781289_2 37434590 37434591_1 37434591_3 37434591_4 37434591_2 37435724 -119097"/>
    </vehicle>
    <vehicle id="1.10" depart="4.61" departLane="random">
        <route edges="334781289_2 37434590 37434591_1 37434591_3 37434591_4 37434591_2 37435724 -119097"/>
    </vehicle>
    <vehicle id="1.11" depart="5.07" departLane="random">
        <route edges="334781289_2 37434590 37434591_1 37434591_3 37434591_4 37434591_2 37435724 -119097"/>
    </vehicle>
    <vehicle id="1.12" depart="5.53" departLane="random">
        <route edges="334781289_2 37434590 37434591_1 37434591_3 37434591_4 37434591_2 37435724 -119097"/>
    </vehicle>
    <vehicle id="1.13" depart="5.99" departLane="random">
        <route edges="334781289_2 37434590 37434591_1 37434591_3 37434591_4 37434591_2 37435724 -119097"/>
    </vehicle>
    <vehicle id="1.14" depart="6.45" departLane="random">
        <route edges="334781289_2 37434590 37434591_1 37434591_3 37434591_4 37434591_2 37435724 -119097"/>
    </vehicle>
    <vehicle id="1.15" depart="6.92" departLane="random">
        <route edges="334781289_2 37434590 37434591_1 37434591_3 37434591_4 37434591_2 37435724 -119097"/>
    </vehicle>
    <vehicle id="1.16" depart="7.38" departLane="random">
        <route edges="334781289_2 37434590 37434591_1 37434591_3 37434591_4 37434591_2 37435724 -119097"/>
    </vehicle>
    <vehicle id="1.17" depart="7.84" departLane="random">
        <route edges="334781289_2 37434590 37434591_1 37434591_3 37434591_4 37434591_2 37435724 -119097"/>
    </vehicle>
    <vehicle id="1.18" depart="8.30" departLane="random">
        <route edges="334781289_2 37434590 37434591_1 37434591_3 37434591_4 37434591_2 37435724 -119097"/>
    </vehicle>
    <vehicle id="1.19" depart="8.76" departLane="random">
        <route edges="334781289_2 37434590 37434591_1 37434591_3 37434591_4 37434591_2 37435724 -119097"/>
    </vehicle>
    <vehicle id="1.20" depart="9.22" departLane="random">
        <route edges="334781289_2 37434590 37434591_1 37434591_3 37434591_4 37434591_2 37435724 -119097"/>
    </vehicle>
    <vehicle id="1.21" depart="9.68" departLane="random">
        <route edges="334781289_2 37434590 37434591_1 37434591_3 37434591_4 37434591_2 37435724 -119097"/>
    </vehicle>
    <vehicle id="1.22" depart="10.14" departLane="random">
        <route edges="334781289_2 37434590 37434591_1 37434591_3 37434591_4 37434591_2 37435724 -119097"/>
    </vehicle>
    <vehicle id="1.23" depart="10.60" departLane="random">
        <route edges="334781289_2 37434590 37434591_1 37434591_3 37434591_4 37434591_2 37435724 -119097"/>
    </vehicle>
    <vehicle id="1.24" depart="11.06" departLane="random">
        <route edges="334781289_2 37434590 37434591_1 37434591_3 37434591_4 37434591_2 37435724 -119097"/>
    </vehicle>
    <vehicle id="1.25" depart="11.53" departLane="random">
        <route edges="334781289_2 37434590 37434591_1 37434591_3 37434591_4 37434591_2 37435724 -119097"/>
    </vehicle>
    <vehicle id="1.26" depart="11.99" departLane="random">
        <route edges="334781289_2 37434590 37434591_1 37434591_3 37434591_4 37434591_2 37435724 -119097"/>
    </vehicle>
    <vehicle id="1.27" depart="12.45" departLane="random">
        <route edges="334781289_2 37434590 37434591_1 37434591_3 37434591_4 37434591_2 37435724 -119097"/>
    </vehicle>
    <vehicle id="1.28" depart="12.91" departLane="random">
        <route edges="334781289_2 37434590 37434591_1 37434591_3 37434591_4 37434591_2 37435724 -119097"/>
    </vehicle>
    <vehicle id="1.29" depart="13.37" departLane="random">
        <route edges="334781289_2 37434590 37434591_1 37434591_3 37434591_4 37434591_2 37435724 -119097"/>
    </vehicle>
    <vehicle id="1.30" depart="13.83" departLane="random">
        <route edges="334781289_2 37434590 37434591_1 37434591_3 37434591_4 37434591_2 37435724 -119097"/>
    </vehicle>
    <vehicle id="1.31" depart="14.29" departLane="random">
        <route edges="334781289_2 37434590 37434591_1 37434591_3 37434591_4 37434591_2 37435724 -119097"/>
    </vehicle>
    <vehicle id="1.32" depart="14.75" departLane="random">
        <route edges="334781289_2 37434590 37434591_1 37434591_3 37434591_4 37434591_2 37435724 -119097"/>
    </vehicle>
    <vehicle id="1.33" depart="15.21" departLane="random">
        <route edges="334781289_2 37434590 37434591_1 37434591_3 37434591_4 37434591_2 37435724 -119097"/>
    </vehicle>
    <vehicle id="1.34" depart="15.67" departLane="random">
        <route edges="334781289_2 37434590 37434591_1 37434591_3 37434591_4 37434591_2 37435724 -119097"/>
    </vehicle>
    <vehicle id="1.35" depart="16.14" departLane="random">
        <route edges="334781289_2 37434590 37434591_1 37434591_3 37434591_4 37434591_2 37435724 -119097"/>
    </vehicle>
    <vehicle id="1.36" depart="16.60" departLane="random">
        <route edges="334781289_2 37434590 37434591_1 37434591_3 37434591_4 37434591_2 37435724 -119097"/>
    </vehicle>
    <vehicle id="1.37" depart="17.06" departLane="random">
        <route edges="334781289_2 37434590 37434591_1 37434591_3 37434591_4 37434591_2 37435724 -119097"/>
    </vehicle>
    <vehicle id="1.38" depart="17.52" departLane="random">
        <route edges="334781289_2 37434590 37434591_1 37434591_3 37434591_4 37434591_2 37435724 -119097"/>
    </vehicle>
    <vehicle id="1.39" depart="17.98" departLane="random">
        <route edges="334781289_2 37434590 37434591_1 37434591_3 37434591_4 37434591_2 37435724 -119097"/>
    </vehicle>
    <vehicle id="1.40" depart="18.44" departLane="random">
        <route edges="334781289_2 37434590 37434591_1 37434591_3 37434591_4 37434591_2 37435724 -119097"/>
    </vehicle>
    <vehicle id="1.41" depart="18.90" departLane="random">
        <route edges="334781289_2 37434590 37434591_1 37434591_3 37434591_4 37434591_2 37435724 -119097"/>
    </vehicle>
    <vehicle id="1.42" depart="19.36" departLane="random">
        <route edges="334781289_2 37434590 37434591_1 37434591_3 37434591_4 37434591_2 37435724 -119097"/>
    </vehicle>
    <vehicle id="1.43" depart="19.82" departLane="random">
        <route edges="334781289_2 37434590 37434591_1 37434591_3 37434591_4 37434591_2 37435724 -119097"/>
    </vehicle>
    <vehicle id="1.44" depart="20.28" departLane="random">
        <route edges="334781289_2 37434590 37434591_1 37434591_3 37434591_4 37434591_2 37435724 -119097"/>
    </vehicle>
    <vehicle id="1.45" depart="20.75" departLane="random">
        <route edges="334781289_2 37434590 37434591_1 37434591_3 37434591_4 37434591_2 37435724 -119097"/>
    </vehicle>
    <vehicle id="1.46" depart="21.21" departLane="random">
        <route edges="334781289_2 37434590 37434591_1 37434591_3 37434591_4 37434591_2 37435724 -119097"/>
    </vehicle>
    <vehicle id="1.47" depart="21.67" departLane="random">
        <route edges="334781289_2 37434590 37434591_1 37434591_3 37434591_4 37434591_2 37435724 -119097"/>
    </vehicle>
    <vehicle id="1.48" depart="22.13" departLane="random">
        <route edges="334781289_2 37434590 37434591_1 37434591_3 37434591_4 37434591_2 37435724 -119097"/>
    </vehicle>
    <vehicle id="1.49" depart="22.59" departLane="random">
        <route edges="334781289_2 37434590 37434591_1 37434591_3 37434591_4 37434591_2 37435724 -119097"/>
    </vehicle>
    <vehicle id="1.50" depart="23.05" departLane="random">
        <route edges="334781289_2 37434590 37434591_1 37434591_3 37434591_4 37434591_2 37435724 -119097"/>
    </vehicle>
    <vehicle id="1.51" depart="23.51" departLane="random">
        <route edges="334781289_2 37434590 37434591_1 37434591_3 37434591_4 37434591_2 37435724 -119097"/>
    </vehicle>
    <vehicle id="1.52" depart="23.97" departLane="random">
        <route edges="334781289_2 37434590 37434591_1 37434591_3 37434591_4 37434591_2 37435724 -119097"/>
    </vehicle>
    <vehicle id="1.53" depart="24.43" departLane="random">
        <route edges="334781289_2 37434590 37434591_1 37434591_3 37434591_4 37434591_2 37435724 -119097"/>
    </vehicle>
    <vehicle id="1.54" depart="24.89" departLane="random">
        <route edges="334781289_2 37434590 37434591_1 37434591_3 37434591_4 37434591_2 37435724 -119097"/>
    </vehicle>
    <vehicle id="1.55" depart="25.36" departLane="random">
        <route edges="334781289_2 37434590 37434591_1 37434591_3 37434591_4 37434591_2 37435724 -119097"/>
    </vehicle>
    <vehicle id="1.56" depart="25.82" departLane="random">
        <route edges="334781289_2 37434590 37434591_1 37434591_3 37434591_4 37434591_2 37435724 -119097"/>
    </vehicle>
    <vehicle id="1.57" depart="26.28" departLane="random">
        <route edges="334781289_2 37434590 37434591_1 37434591_3 37434591_4 37434591_2 37435724 -119097"/>
    </vehicle>
    <vehicle id="1.58" depart="26.74" departLane="random">
        <route edges="334781289_2 37434590 37434591_1 37434591_3 37434591_4 37434591_2 37435724 -119097"/>
    </vehicle>
    <vehicle id="1.59" depart="27.20" departLane="random">
        <route edges="334781289_2 37434590 37434591_1 37434591_3 37434591_4 37434591_2 37435724 -119097"/>
    </vehicle>
    <vehicle id="1.60" depart="27.66" departLane="random">
        <route edges="334781289_2 37434590 37434591_1 37434591_3 37434591_4 37434591_2 37435724 -119097"/>
    </vehicle>
    <vehicle id="1.61" depart="28.12" departLane="random">
        <route edges="334781289_2 37434590 37434591_1 37434591_3 37434591_4 37434591_2 37435724 -119097"/>
    </vehicle>
    <vehicle id="1.62" depart="28.58" departLane="random">
        <route edges="334781289_2 37434590 37434591_1 37434591_3 37434591_4 37434591_2 37435724 -119097"/>
    </vehicle>
    <vehicle id="1.63" depart="29.04" departLane="random">
        <route edges="334781289_2 37434590 37434591_1 37434591_3 37434591_4 37434591_2 37435724 -119097"/>
    </vehicle>
    <vehicle id="1.64" depart="29.50" departLane="random">
        <route edges="334781289_2 37434590 37434591_1 37434591_3 37434591_4 37434591_2 37435724 -119097"/>
    </vehicle>
    <vehicle id="1.65" depart="29.97" departLane="random">
        <route edges="334781289_2 37434590 37434591_1 37434591_3 37434591_4 37434591_2 37435724 -119097"/>
    </vehicle>
    <vehicle id="1.66" depart="30.43" departLane="random">
        <route edges="334781289_2 37434590 37434591_1 37434591_3 37434591_4 37434591_2 37435724 -119097"/>
    </vehicle>
    <vehicle id="1.67" depart="30.89" departLane="random">
        <route edges="334781289_2 37434590 37434591_1 37434591_3 37434591_4 37434591_2 37435724 -119097"/>
    </vehicle>
    <vehicle id="1.68" depart="31.35" departLane="random">
        <route edges="334781289_2 37434590 37434591_1 37434591_3 37434591_4 37434591_2 37435724 -119097"/>
    </vehicle>
    <vehicle id="1.69" depart="31.81" departLane="random">
        <route edges="334781289_2 37434590 37434591_1 37434591_3 37434591_4 37434591_2 37435724 -119097"/>
    </vehicle>
    <vehicle id="1.70" depart="32.27" departLane="random">
        <route edges="334781289_2 37434590 37434591_1 37434591_3 37434591_4 37434591_2 37435724 -119097"/>
    </vehicle>
    <vehicle id="1.71" depart="32.73" departLane="random">
        <route edges="334781289_2 37434590 37434591_1 37434591_3 37434591_4 37434591_2 37435724 -119097"/>
    </vehicle>
    <vehicle id="1.72" depart="33.19" departLane="random">
        <route edges="334781289_2 37434590 37434591_1 37434591_3 37434591_4 37434591_2 37435724 -119097"/>
    </vehicle>
    <vehicle id="1.73" depart="33.65" departLane="random">
        <route edges="334781289_2 37434590 37434591_1 37434591_3 37434591_4 37434591_2 37435724 -119097"/>
    </vehicle>
    <vehicle id="1.74" depart="34.11" departLane="random">
        <route edges="334781289_2 37434590 37434591_1 37434591_3 37434591_4 37434591_2 37435724 -119097"/>
    </vehicle>
    <vehicle id="1.75" depart="34.58" departLane="random">
        <route edges="334781289_2 37434590 37434591_1 37434591_3 37434591_4 37434591_2 37435724 -119097"/>
    </vehicle>
    <vehicle id="1.76" depart="35.04" departLane="random">
        <route edges="334781289_2 37434590 37434591_1 37434591_3 37434591_4 37434591_2 37435724 -119097"/>
    </vehicle>
    <vehicle id="1.77" depart="35.50" departLane="random">
        <route edges="334781289_2 37434590 37434591_1 37434591_3 37434591_4 37434591_2 37435724 -119097"/>
    </vehicle>
    <vehicle id="1.78" depart="35.96" departLane="random">
        <route edges="334781289_2 37434590 37434591_1 37434591_3 37434591_4 37434591_2 37435724 -119097"/>
    </vehicle>
    <vehicle id="1.79" depart="36.42" departLane="random">
        <route edges="334781289_2 37434590 37434591_1 37434591_3 37434591_4 37434591_2 37435724 -119097"/>
    </vehicle>
    <vehicle id="1.80" depart="36.88" departLane="random">
        <route edges="334781289_2 37434590 37434591_1 37434591_3 37434591_4 37434591_2 37435724 -119097"/>
    </vehicle>
    <vehicle id="1.81" depart="37.34" departLane="random">
        <route edges="334781289_2 37434590 37434591_1 37434591_3 37434591_4 37434591_2 37435724 -119097"/>
    </vehicle>
    <vehicle id="1.82" depart="37.80" departLane="random">
        <route edges="334781289_2 37434590 37434591_1 37434591_3 37434591_4 37434591_2 37435724 -119097"/>
    </vehicle>
    <vehicle id="1.83" depart="38.26" departLane="random">
        <route edges="334781289_2 37434590 37434591_1 37434591_3 37434591_4 37434591_2 37435724 -119097"/>
    </vehicle>
    <vehicle id="1.84" depart="38.72" departLane="random">
        <route edges="334781289_2 37434590 37434591_1 37434591_3 37434591_4 37434591_2 37435724 -119097"/>
    </vehicle>
    <vehicle id="1.85" depart="39.19" departLane="random">
        <route edges="334781289_2 37434590 37434591_1 37434591_3 37434591_4 37434591_2 37435724 -119097"/>
    </vehicle>
    <vehicle id="1.86" depart="39.65" departLane="random">
        <route edges="334781289_2 37434590 37434591_1 37434591_3 37434591_4 37434591_2 37435724 -119097"/>
    </vehicle>
    <vehicle id="1.87" depart="40.11" departLane="random">
        <route edges="334781289_2 37434590 37434591_1 37434591_3 37434591_4 37434591_2 37435724 -119097"/>
    </vehicle>
    <vehicle id="1.88" depart="40.57" departLane="random">
        <route edges="334781289_2 37434590 37434591_1 37434591_3 37434591_4 37434591_2 37435724 -119097"/>
    </vehicle>
    <vehicle id="1.89" depart="41.03" departLane="random">
        <route edges="334781289_2 37434590 37434591_1 37434591_3 37434591_4 37434591_2 37435724 -119097"/>
    </vehicle>
    <vehicle id="1.90" depart="41.49" departLane="random">
        <route edges="334781289_2 37434590 37434591_1 37434591_3 37434591_4 37434591_2 37435724 -119097"/>
    </vehicle>
    <vehicle id="1.91" depart="41.95" departLane="random">
        <route edges="334781289_2 37434590 37434591_1 37434591_3 37434591_4 37434591_2 37435724 -119097"/>
    </vehicle>
    <vehicle id="1.92" depart="42.41" departLane="random">
        <route edges="334781289_2 37434590 37434591_1 37434591_3 37434591_4 37434591_2 37435724 -119097"/>
    </vehicle>
    <vehicle id="1.93" depart="42.87" departLane="random">
        <route edges="334781289_2 37434590 37434591_1 37434591_3 37434591_4 37434591_2 37435724 -119097"/>
    </vehicle>
    <vehicle id="1.94" depart="43.33" departLane="random">
        <route edges="334781289_2 37434590 37434591_1 37434591_3 37434591_4 37434591_2 37435724 -119097"/>
    </vehicle>
    <vehicle id="1.95" depart="43.80" departLane="random">
        <route edges="334781289_2 37434590 37434591_1 37434591_3 37434591_4 37434591_2 37435724 -119097"/>
    </vehicle>
    <vehicle id="1.96" depart="44.26" departLane="random">
        <route edges="334781289_2 37434590 37434591_1 37434591_3 37434591_4 37434591_2 37435724 -119097"/>
    </vehicle>
    <vehicle id="1.97" depart="44.72" departLane="random">
        <route edges="334781289_2 37434590 37434591_1 37434591_3 37434591_4 37434591_2 37435724 -119097"/>
    </vehicle>
    <vehicle id="1.98" depart="45.18" departLane="random">
        <route edges="334781289_2 37434590 37434591_1 37434591_3 37434591_4 37434591_2 37435724 -119097"/>
    </vehicle>
    <vehicle id="1.99" depart="45.64" departLane="random">
        <route edges="334781289_2 37434590 37434591_1 37434591_3 37434591_4 37434591_2 37435724 -119097"/>
    </vehicle>
    <vehicle id="1.100" depart="46.10" departLane="random">
        <route edges="334781289_2 37434590 37434591_1 37434591_3 37434591_4 37434591_2 37435724 -119097"/>
    </vehicle>
    <vehicle id="1.101" depart="46.56" departLane="random">
        <route edges="334781289_2 37434590 37434591_1 37434591_3 37434591_4 37434591_2 37435724 -119097"/>
    </vehicle>
    <vehicle id="1.102" depart="47.02" departLane="random">
        <route edges="334781289_2 37434590 37434591_1 37434591_3 37434591_4 37434591_2 37435724 -119097"/>
    </vehicle>
    <vehicle id="1.103" depart="47.48" departLane="random">
        <route edges="334781289_2 37434590 37434591_1 37434591_3 37434591_4 37434591_2 37435724 -119097"/>
    </vehicle>
    <vehicle id="1.104" depart="47.94" departLane="random">
        <route edges="334781289_2 37434590 37434591_1 37434591_3 37434591_4 37434591_2 37435724 -119097"/>
    </vehicle>
    <vehicle id="1.105" depart="48.41" departLane="random">
        <route edges="334781289_2 37434590 37434591_1 37434591_3 37434591_4 37434591_2 37435724 -119097"/>
    </vehicle>
    <vehicle id="1.106" depart="48.87" departLane="random">
        <route edges="334781289_2 37434590 37434591_1 37434591_3 37434591_4 37434591_2 37435724 -119097"/>
    </vehicle>
    <vehicle id="1.107" depart="49.33" departLane="random">
        <route edges="334781289_2 37434590 37434591_1 37434591_3 37434591_4 37434591_2 37435724 -119097"/>
    </vehicle>
    <vehicle id="1.108" depart="49.79" departLane="random">
        <route edges="334781289_2 37434590 37434591_1 37434591_3 37434591_4 37434591_2 37435724 -119097"/>
    </vehicle>
    <vehicle id="1.109" depart="50.25" departLane="random">
        <route edges="334781289_2 37434590 37434591_1 37434591_3 37434591_4 37434591_2 37435724 -119097"/>
    </vehicle>
    <vehicle id="1.110" depart="50.71" departLane="random">
        <route edges="334781289_2 37434590 37434591_1 37434591_3 37434591_4 37434591_2 37435724 -119097"/>
    </vehicle>
    <vehicle id="1.111" depart="51.17" departLane="random">
        <route edges="334781289_2 37434590 37434591_1 37434591_3 37434591_4 37434591_2 37435724 -119097"/>
    </vehicle>
    <vehicle id="1.112" depart="51.63" departLane="random">
        <route edges="334781289_2 37434590 37434591_1 37434591_3 37434591_4 37434591_2 37435724 -119097"/>
    </vehicle>
    <vehicle id="1.113" depart="52.09" departLane="random">
        <route edges="334781289_2 37434590 37434591_1 37434591_3 37434591_4 37434591_2 37435724 -119097"/>
    </vehicle>
    <vehicle id="1.114" depart="52.55" departLane="random">
        <route edges="334781289_2 37434590 37434591_1 37434591_3 37434591_4 37434591_2 37435724 -119097"/>
    </vehicle>
    <vehicle id="1.115" depart="53.02" departLane="random">
        <route edges="334781289_2 37434590 37434591_1 37434591_3 37434591_4 37434591_2 37435724 -119097"/>
    </vehicle>
    <vehicle id="1.116" depart="53.48" departLane="random">
        <route edges="334781289_2 37434590 37434591_1 37434591_3 37434591_4 37434591_2 37435724 -119097"/>
    </vehicle>
    <vehicle id="1.117" depart="53.94" departLane="random">
        <route edges="334781289_2 37434590 37434591_1 37434591_3 37434591_4 37434591_2 37435724 -119097"/>
    </vehicle>
    <vehicle id="1.118" depart="54.40" departLane="random">
        <route edges="334781289_2 37434590 37434591_1 37434591_3 37434591_4 37434591_2 37435724 -119097"/>
    </vehicle>
    <vehicle id="1.119" depart="54.86" departLane="random">
        <route edges="334781289_2 37434590 37434591_1 37434591_3 37434591_4 37434591_2 37435724 -119097"/>
    </vehicle>
    <vehicle id="1.120" depart="55.32" departLane="random">
        <route edges="334781289_2 37434590 37434591_1 37434591_3 37434591_4 37434591_2 37435724 -119097"/>
    </vehicle>
    <vehicle id="1.121" depart="55.78" departLane="random">
        <route edges="334781289_2 37434590 37434591_1 37434591_3 37434591_4 37434591_2 37435724 -119097"/>
    </vehicle>
    <vehicle id="1.122" depart="56.24" departLane="random">
        <route edges="334781289_2 37434590 37434591_1 37434591_3 37434591_4 37434591_2 37435724 -119097"/>
    </vehicle>
    <vehicle id="1.123" depart="56.70" departLane="random">
        <route edges="334781289_2 37434590 37434591_1 37434591_3 37434591_4 37434591_2 37435724 -119097"/>
    </vehicle>
    <vehicle id="1.124" depart="57.16" departLane="random">
        <route edges="334781289_2 37434590 37434591_1 37434591_3 37434591_4 37434591_2 37435724 -119097"/>
    </vehicle>
    <vehicle id="1.125" depart="57.63" departLane="random">
        <route edges="334781289_2 37434590 37434591_1 37434591_3 37434591_4 37434591_2 37435724 -119097"/>
    </vehicle>
    <vehicle id="1.126" depart="58.09" departLane="random">
        <route edges="334781289_2 37434590 37434591_1 37434591_3 37434591_4 37434591_2 37435724 -119097"/>
    </vehicle>
    <vehicle id="1.127" depart="58.55" departLane="random">
        <route edges="334781289_2 37434590 37434591_1 37434591_3 37434591_4 37434591_2 37435724 -119097"/>
    </vehicle>
    <vehicle id="1.128" depart="59.01" departLane="random">
        <route edges="334781289_2 37434590 37434591_1 37434591_3 37434591_4 37434591_2 37435724 -119097"/>
    </vehicle>
    <vehicle id="1.129" depart="59.47" departLane="random">
        <route edges="334781289_2 37434590 37434591_1 37434591_3 37434591_4 37434591_2 37435724 -119097"/>
    </vehicle>
    <vehicle id="1.130" depart="59.93" departLane="random">
        <route edges="334781289_2 37434590 37434591_1 37434591_3 37434591_4 37434591_2 37435724 -119097"/>
    </vehicle>
    <vehicle id="1.131" depart="60.39" departLane="random">
        <route edges="334781289_2 37434590 37434591_1 37434591_3 37434591_4 37434591_2 37435724 -119097"/>
    </vehicle>
    <vehicle id="1.132" depart="60.85" departLane="random">
        <route edges="334781289_2 37434590 37434591_1 37434591_3 37434591_4 37434591_2 37435724 -119097"/>
    </vehicle>
    <vehicle id="1.133" depart="61.31" departLane="random">
        <route edges="334781289_2 37434590 37434591_1 37434591_3 37434591_4 37434591_2 37435724 -119097"/>
    </vehicle>
    <vehicle id="1.134" depart="61.77" departLane="random">
        <route edges="334781289_2 37434590 37434591_1 37434591_3 37434591_4 37434591_2 37435724 -119097"/>
    </vehicle>
    <vehicle id="1.135" depart="62.23" departLane="random">
        <route edges="334781289_2 37434590 37434591_1 37434591_3 37434591_4 37434591_2 37435724 -119097"/>
    </vehicle>
    <vehicle id="1.136" depart="62.70" departLane="random">
        <route edges="334781289_2 37434590 37434591_1 37434591_3 37434591_4 37434591_2 37435724 -119097"/>
    </vehicle>
    <vehicle id="1.137" depart="63.16" departLane="random">
        <route edges="334781289_2 37434590 37434591_1 37434591_3 37434591_4 37434591_2 37435724 -119097"/>
    </vehicle>
    <vehicle id="1.138" depart="63.62" departLane="random">
        <route edges="334781289_2 37434590 37434591_1 37434591_3 37434591_4 37434591_2 37435724 -119097"/>
    </vehicle>
    <vehicle id="1.139" depart="64.08" departLane="random">
        <route edges="334781289_2 37434590 37434591_1 37434591_3 37434591_4 37434591_2 37435724 -119097"/>
    </vehicle>
    <vehicle id="1.140" depart="64.54" departLane="random">
        <route edges="334781289_2 37434590 37434591_1 37434591_3 37434591_4 37434591_2 37435724 -119097"/>
    </vehicle>
    <vehicle id="1.141" depart="65.00" departLane="random">
        <route edges="334781289_2 37434590 37434591_1 37434591_3 37434591_4 37434591_2 37435724 -119097"/>
    </vehicle>
    <vehicle id="1.142" depart="65.46" departLane="random">
        <route edges="334781289_2 37434590 37434591_1 37434591_3 37434591_4 37434591_2 37435724 -119097"/>
    </vehicle>
    <vehicle id="1.143" depart="65.92" departLane="random">
        <route edges="334781289_2 37434590 37434591_1 37434591_3 37434591_4 37434591_2 37435724 -119097"/>
    </vehicle>
    <vehicle id="1.144" depart="66.38" departLane="random">
        <route edges="334781289_2 37434590 37434591_1 37434591_3 37434591_4 37434591_2 37435724 -119097"/>
    </vehicle>
    <vehicle id="1.145" depart="66.84" departLane="random">
        <route edges="334781289_2 37434590 37434591_1 37434591_3 37434591_4 37434591_2 37435724 -119097"/>
    </vehicle>
    <vehicle id="1.146" depart="67.31" departLane="random">
        <route edges="334781289_2 37434590 37434591_1 37434591_3 37434591_4 37434591_2 37435724 -119097"/>
    </vehicle>
    <vehicle id="1.147" depart="67.77" departLane="random">
        <route edges="334781289_2 37434590 37434591_1 37434591_3 37434591_4 37434591_2 37435724 -119097"/>
    </vehicle>
    <vehicle id="1.148" depart="68.23" departLane="random">
        <route edges="334781289_2 37434590 37434591_1 37434591_3 37434591_4 37434591_2 37435724 -119097"/>
    </vehicle>
    <vehicle id="1.149" depart="68.69" departLane="random">
        <route edges="334781289_2 37434590 37434591_1 37434591_3 37434591_4 37434591_2 37435724 -119097"/>
    </vehicle>
    <vehicle id="1.150" depart="69.15" departLane="random">
        <route edges="334781289_2 37434590 37434591_1 37434591_3 37434591_4 37434591_2 37435724 -119097"/>
    </vehicle>
    <vehicle id="1.151" depart="69.61" departLane="random">
        <route edges="334781289_2 37434590 37434591_1 37434591_3 37434591_4 37434591_2 37435724 -119097"/>
    </vehicle>
    <vehicle id="1.152" depart="70.07" departLane="random">
        <route edges="334781289_2 37434590 37434591_1 37434591_3 37434591_4 37434591_2 37435724 -119097"/>
    </vehicle>
    <vehicle id="1.153" depart="70.53" departLane="random">
        <route edges="334781289_2 37434590 37434591_1 37434591_3 37434591_4 37434591_2 37435724 -119097"/>
    </vehicle>
    <vehicle id="1.154" depart="70.99" departLane="random">
        <route edges="334781289_2 37434590 37434591_1 37434591_3 37434591_4 37434591_2 37435724 -119097"/>
    </vehicle>
    <vehicle id="1.155" depart="71.45" departLane="random">
        <route edges="334781289_2 37434590 37434591_1 37434591_3 37434591_4 37434591_2 37435724 -119097"/>
    </vehicle>
    <vehicle id="1.156" depart="71.92" departLane="random">
        <route edges="334781289_2 37434590 37434591_1 37434591_3 37434591_4 37434591_2 37435724 -119097"/>
    </vehicle>
    <vehicle id="1.157" depart="72.38" departLane="random">
        <route edges="334781289_2 37434590 37434591_1 37434591_3 37434591_4 37434591_2 37435724 -119097"/>
    </vehicle>
    <vehicle id="1.158" depart="72.84" departLane="random">
        <route edges="334781289_2 37434590 37434591_1 37434591_3 37434591_4 37434591_2 37435724 -119097"/>