<?xml version="1.0" encoding="UTF-8"?>

<!-- generated on 08/17/20 21:49:36 by Eclipse SUMO netedit Version 1.3.1
<configuration xmlns:xsi="http://www.w3.org/2001/XMLSchema-instance" xsi:noNamespaceSchemaLocation="http://sumo.dlr.de/xsd/netconvertConfiguration.xsd">

    <input>
        <sumo-net-file value="C:\Users\weiminj\Desktop\Webots_Mhafuz\risk_based\risk-based_high_mid_low_congested_NGSM\risk_base_model_Radar\worlds\LinkonMKZmyMap_net\sumo.net.xml"/>
    </input>

    <output>
        <output-file value="C:\Users\weiminj\Desktop\Webots_Mhafuz\risk_based\risk-based_high_mid_low_congested_NGSM\risk_base_model_Radar\worlds\LinkonMKZmyMap_net\sumo.net.xml"/>
    </output>

    <processing>
        <geometry.max-grade.fix value="false"/>
        <offset.disable-normalization value="true"/>
        <opposites.guess.fix-lengths value="true"/>
        <lefthand value="false"/>
    </processing>

    <junctions>
        <no-turnarounds value="true"/>
        <junctions.corner-detail value="0"/>
        <junctions.limit-turn-speed value="-1"/>
        <rectangular-lane-cut value="false"/>
    </junctions>

    <pedestrian>
        <walkingareas value="false"/>
    </pedestrian>

</configuration>
-->

<net version="1.3" xmlns:xsi="http://www.w3.org/2001/XMLSchema-instance" xsi:noNamespaceSchemaLocation="http://sumo.dlr.de/xsd/net_file.xsd">

    <location netOffset="877.80,375.41" convBoundary="0.00,0.00,1674.54,985.48" origBoundary="-877.80,-375.41,796.74,610.07" projParameter="!"/>

    <edge id=":112662665_0" function="internal">
        <lane id=":112662665_0_0" index="0" speed="13.90" length="25.32" width="4.00" shape="858.02,436.24 849.77,433.98 842.93,432.71 837.43,432.34 833.16,432.74"/>
    </edge>
    <edge id=":112662665_1" function="internal">
        <lane id=":112662665_1_0" index="0" speed="13.90" length="26.00" width="3.50" shape="858.02,436.24 833.31,427.96"/>
        <lane id=":112662665_1_1" index="1" speed="13.90" length="26.00" width="3.50" shape="859.07,432.90 834.42,424.64"/>
        <lane id=":112662665_1_2" index="2" speed="13.90" length="26.00" width="3.50" shape="860.11,429.56 835.53,421.32"/>
    </edge>
    <edge id=":112662748_0" function="internal">
        <lane id=":112662748_0_0" index="0" speed="13.90" length="22.44" width="3.50" shape="573.92,485.34 570.85,487.96 567.42,491.40 563.45,495.93 558.76,501.82"/>
    </edge>
    <edge id=":112662748_1" function="internal">
        <lane id=":112662748_1_0" index="0" speed="13.90" length="23.08" width="3.50" shape="571.13,482.43 555.99,499.69"/>
        <lane id=":112662748_1_1" index="1" speed="13.90" length="23.08" width="3.50" shape="568.50,480.11 553.21,497.56"/>
    </edge>
    <edge id=":112664009_0" function="internal">
        <lane id=":112664009_0_0" index="0" speed="13.90" length="25.36" width="4.00" shape="598.63,350.40 590.36,348.18 583.51,347.00 577.99,346.62 573.68,346.79"/>
    </edge>
    <edge id=":112664009_1" function="internal">
        <lane id=":112664009_1_0" index="0" speed="13.90" length="26.00" width="3.50" shape="598.63,350.40 573.83,342.53"/>
        <lane id=":112664009_1_1" index="1" speed="13.90" length="26.00" width="3.50" shape="599.67,347.06 574.89,339.19"/>
        <lane id=":112664009_1_2" index="2" speed="13.90" length="26.00" width="3.50" shape="600.72,343.72 575.95,335.86"/>
    </edge>
    <edge id=":112664093_0" function="internal">
        <lane id=":112664093_0_0" index="0" speed="13.90" length="31.65" width="3.50" shape="584.40,431.41 589.05,428.20 595.49,422.95 602.28,416.68 607.96,410.43"/>
    </edge>
    <edge id=":112664093_1" function="internal">
        <lane id=":112664093_1_0" index="0" speed="13.90" length="32.03" width="3.50" shape="586.91,434.44 607.96,410.43"/>
        <lane id=":112664093_1_1" index="1" speed="13.90" length="32.03" width="3.50" shape="589.54,436.75 610.71,412.60"/>
    </edge>
    <edge id=":112685489_0" function="internal">
        <lane id=":112685489_0_0" index="0" speed="21.48" length="12.97" width="4.00" shape="481.48,282.89 485.31,283.94 488.26,284.17 490.99,283.76 494.15,282.90"/>
    </edge>
    <edge id=":112685489_1" function="internal">
        <lane id=":112685489_1_0" index="0" speed="29.06" length="14.07" width="3.50" shape="481.48,282.89 494.81,287.19"/>
        <lane id=":112685489_1_1" index="1" speed="29.06" length="14.07" width="3.50" shape="480.32,286.19 493.74,290.52"/>
        <lane id=":112685489_1_2" index="2" speed="29.06" length="14.07" width="3.50" shape="479.26,289.52 492.67,293.85"/>
    </edge>
    <edge id=":112685553_0" function="internal">
        <lane id=":112685553_0_0" index="0" speed="13.90" length="25.82" width="3.50" shape="763.34,221.89 767.04,218.92 771.86,214.85 777.16,209.93 782.31,204.43"/>
    </edge>
    <edge id=":112685553_1" function="internal">
        <lane id=":112685553_1_0" index="0" speed="13.90" length="25.99" width="3.50" shape="765.92,224.66 782.31,204.43"/>
        <lane id=":112685553_1_1" index="1" speed="13.90" length="25.99" width="3.50" shape="768.64,226.86 784.98,206.70"/>
    </edge>
    <edge id=":112687059_0" function="internal">
        <lane id=":112687059_0_0" index="0" speed="17.95" length="15.16" width="3.70" shape="862.91,403.77 865.66,405.67 868.67,406.71 872.33,407.55 877.04,408.83"/>
    </edge>
    <edge id=":112687059_1" function="internal">
        <lane id=":112687059_1_0" index="0" speed="22.00" length="16.73" width="3.70" shape="859.74,407.85 875.92,412.35"/>
        <lane id=":112687059_1_1" index="1" speed="22.00" length="16.73" width="3.70" shape="858.73,411.20 874.80,415.88"/>
        <lane id=":112687059_1_2" index="2" speed="22.00" length="16.73" width="3.70" shape="857.73,414.56 873.67,419.41"/>
    </edge>
    <edge id=":112687059_1_0" function="internal">
        <lane id=":112687059_1_0_0" index="0" speed="21.48" length="16.15" width="3.50" shape="600.25,316.99 602.69,319.54 605.41,321.67 608.93,323.56 613.77,325.38"/>
    </edge>
    <edge id=":112687059_1_1" function="internal">
        <lane id=":112687059_1_1_0" index="0" speed="29.06" length="17.00" width="3.50" shape="597.57,320.18 613.77,325.38"/>
        <lane id=":112687059_1_1_1" index="1" speed="29.06" length="17.00" width="3.50" shape="596.50,323.51 612.69,328.71"/>
        <lane id=":112687059_1_1_2" index="2" speed="29.06" length="17.00" width="3.50" shape="595.43,326.84 611.61,332.04"/>
    </edge>
    <edge id=":112687141_0" function="internal">
        <lane id=":112687141_0_0" index="0" speed="13.90" length="19.76" width="4.00" shape="687.46,317.45 691.56,312.42 694.28,308.06 696.17,304.22 697.80,300.74"/>
    </edge>
    <edge id=":112687141_1" function="internal">
        <lane id=":112687141_1_0" index="0" speed="13.90" length="20.00" width="3.50" shape="687.46,317.45 701.02,302.76"/>
        <lane id=":112687141_1_1" index="1" speed="13.90" length="20.00" width="3.50" shape="690.03,319.82 703.59,305.13"/>
    </edge>
    <edge id=":112694754_0" function="internal">
        <lane id=":112694754_0_0" index="0" speed="17.95" length="37.44" width="4.00" shape="717.73,359.29 728.75,362.49 739.47,364.98 748.45,366.57 754.27,367.10"/>
    </edge>
    <edge id=":112694754_1" function="internal">
        <lane id=":112694754_1_0" index="0" speed="22.00" length="38.00" width="3.50" shape="717.73,359.29 753.56,372.03"/>
        <lane id=":112694754_1_1" index="1" speed="22.00" length="38.00" width="3.50" shape="716.64,362.61 752.44,375.35"/>
        <lane id=":112694754_1_2" index="2" speed="22.00" length="38.00" width="3.50" shape="715.55,365.94 751.32,378.67"/>
    </edge>
    <edge id=":112694835_0" function="internal">
        <lane id=":112694835_0_0" index="0" speed="13.90" length="22.55" width="3.50" shape="753.70,278.73 749.83,280.49 745.42,283.21 740.67,287.03 735.81,292.10"/>
    </edge>
    <edge id=":112694835_1" function="internal">
        <lane id=":112694835_1_0" index="0" speed="13.90" length="23.00" width="3.50" shape="751.03,274.90 735.81,292.10"/>
        <lane id=":112694835_1_1" index="1" speed="13.90" length="23.00" width="3.50" shape="748.41,272.58 733.14,289.84"/>
    </edge>
    <edge id=":112703313_0" function="internal">
        <lane id=":112703313_0_0" index="0" speed="13.90" length="13.13" width="3.50" shape="476.71,315.71 474.59,313.23 472.52,311.39 469.91,309.85 466.16,308.26"/>
    </edge>
    <edge id=":112703313_1" function="internal">
        <lane id=":112703313_1_0" index="0" speed="13.90" length="14.00" width="3.50" shape="479.68,312.63 466.16,308.26"/>
        <lane id=":112703313_1_1" index="1" speed="13.90" length="14.00" width="3.50" shape="480.74,309.29 467.41,304.99"/>
        <lane id=":112703313_1_2" index="2" speed="13.90" length="14.00" width="3.50" shape="481.80,305.96 468.67,301.73"/>
    </edge>
    <edge id=":112872188_0" function="internal">
        <lane id=":112872188_0_0" index="0" speed="13.90" length="19.26" width="3.50" shape="507.66,563.92 503.94,568.95 501.90,573.48 500.59,577.51 499.05,580.98"/>
    </edge>
    <edge id=":112872188_1" function="internal">
        <lane id=":112872188_1_0" index="0" speed="13.90" length="9.09" width="3.50" shape="505.10,561.54 499.68,566.46 497.96,566.90"/>
    </edge>
    <edge id=":112872188_2" function="internal">
        <lane id=":112872188_2_0" index="0" speed="13.90" length="3.02" width="3.50" shape="502.53,559.16 500.64,560.88 500.19,561.00"/>
    </edge>
    <edge id=":112872188_7" function="internal">
        <lane id=":112872188_7_0" index="0" speed="13.90" length="12.46" width="3.50" shape="497.96,566.90 496.33,567.32 495.06,564.11 495.87,556.83"/>
    </edge>
    <edge id=":112872188_8" function="internal">
        <lane id=":112872188_8_0" index="0" speed="13.90" length="4.52" width="3.50" shape="500.19,561.00 499.47,561.18 499.02,560.06 499.30,557.51"/>
    </edge>
    <edge id=":112872188_3" function="internal">
        <lane id=":112872188_3_0" index="0" speed="13.90" length="19.62" width="3.50" shape="484.06,571.95 487.10,567.50 489.36,564.48 491.05,561.25 492.44,556.15"/>
        <lane id=":112872188_3_1" index="1" speed="13.90" length="19.62" width="3.50" shape="486.76,574.23 490.09,569.34 492.53,566.01 494.37,562.44 495.87,556.83"/>
        <lane id=":112872188_3_2" index="2" speed="13.90" length="19.62" width="3.50" shape="489.86,575.88 493.34,570.73 495.86,567.20 497.74,563.42 499.30,557.51"/>
    </edge>
    <edge id=":112872188_6" function="internal">
        <lane id=":112872188_6_0" index="0" speed="13.90" length="2.40" width="3.50" shape="495.97,579.31 497.37,578.57 498.19,578.60"/>
    </edge>
    <edge id=":112872188_9" function="internal">
        <lane id=":112872188_9_0" index="0" speed="13.90" length="2.72" width="3.50" shape="498.19,578.60 498.35,578.61 498.91,579.41 499.05,580.98"/>
    </edge>
    <edge id=":113025971_0" function="internal">
        <lane id=":113025971_0_0" index="0" speed="22.00" length="0.29" width="3.50" shape="1347.41,562.28 1347.72,562.39"/>
        <lane id=":113025971_0_1" index="1" speed="22.00" length="0.29" width="3.50" shape="1346.34,565.62 1346.61,565.71"/>
        <lane id=":113025971_0_2" index="2" speed="22.00" length="0.29" width="3.50" shape="1345.27,568.95 1345.50,569.03"/>
    </edge>
    <edge id=":113177751_0" function="internal">
        <lane id=":113177751_0_0" index="0" speed="13.90" length="19.74" width="4.00" shape="805.05,213.87 801.28,219.18 798.77,223.66 797.02,227.55 795.56,231.09"/>
    </edge>
    <edge id=":113177751_1" function="internal">
        <lane id=":113177751_1_0" index="0" speed="13.90" length="19.99" width="3.50" shape="805.05,213.87 791.76,228.95"/>
        <lane id=":113177751_1_1" index="1" speed="13.90" length="19.99" width="3.50" shape="802.30,211.71 789.14,226.63"/>
    </edge>
    <edge id=":113214327_0" function="internal">
        <lane id=":113214327_0_0" index="0" speed="13.90" length="34.62" width="4.00" shape="519.37,514.32 525.60,505.18 531.05,496.73 535.13,489.69 537.27,484.77"/>
    </edge>
    <edge id=":113214327_1" function="internal">
        <lane id=":113214327_1_0" index="0" speed="13.90" length="35.18" width="3.50" shape="522.25,516.31 527.88,507.51 532.43,499.60 536.61,492.58 541.14,486.49"/>
        <lane id=":113214327_1_1" index="1" speed="13.90" length="35.18" width="3.50" shape="525.12,518.31 530.73,509.55 535.20,501.72 539.31,494.80 543.82,488.74"/>
    </edge>
    <edge id=":437608874_0" function="internal">
        <lane id=":437608874_0_0" index="0" speed="13.90" length="0.30" width="3.50" shape="621.47,357.54 621.18,357.45"/>
        <lane id=":437608874_0_1" index="1" speed="13.90" length="0.30" width="3.50" shape="622.51,354.20 622.22,354.11"/>
        <lane id=":437608874_0_2" index="2" speed="13.90" length="0.30" width="3.50" shape="623.55,350.85 623.27,350.77"/>
    </edge>
    <edge id=":437608875_0" function="internal">
        <lane id=":437608875_0_0" index="0" speed="25.53" length="0.10" width="3.50" shape="637.80,333.18 637.80,333.18"/>
        <lane id=":437608875_0_1" index="1" speed="25.53" length="0.10" width="3.50" shape="636.72,336.51 636.72,336.51"/>
        <lane id=":437608875_0_2" index="2" speed="25.53" length="0.10" width="3.50" shape="635.64,339.84 635.64,339.84"/>
    </edge>
    <edge id=":437608876_0" function="internal">
        <lane id=":437608876_0_0" index="0" speed="22.00" length="0.30" width="3.50" shape="707.87,356.05 708.15,356.14"/>
        <lane id=":437608876_0_1" index="1" speed="22.00" length="0.30" width="3.50" shape="706.78,359.38 707.06,359.47"/>
        <lane id=":437608876_0_2" index="2" speed="22.00" length="0.30" width="3.50" shape="705.68,362.70 705.97,362.79"/>
    </edge>
    <edge id=":437608877_0" function="internal">
        <lane id=":437608877_0_0" index="0" speed="13.90" length="0.10" width="3.50" shape="691.26,380.33 691.26,380.33"/>
        <lane id=":437608877_0_1" index="1" speed="13.90" length="0.10" width="3.50" shape="692.40,377.02 692.40,377.02"/>
        <lane id=":437608877_0_2" index="2" speed="13.90" length="0.10" width="3.50" shape="693.53,373.71 693.53,373.71"/>
    </edge>
    <edge id=":437641743_0" function="internal">
        <lane id=":437641743_0_0" index="0" speed="13.90" length="0.30" width="3.50" shape="1284.40,568.42 1284.12,568.33"/>
        <lane id=":437641743_0_1" index="1" speed="13.90" length="0.30" width="3.50" shape="1285.48,565.08 1285.19,565.00"/>
        <lane id=":437641743_0_2" index="2" speed="13.90" length="0.30" width="3.50" shape="1286.55,561.75 1286.25,561.66"/>
    </edge>
    <edge id=":437641744_0" function="internal">
        <lane id=":437641744_0_0" index="0" speed="22.00" length="1.43" width="3.50" shape="1291.46,545.80 1292.18,544.56"/>
        <lane id=":437641744_0_1" index="1" speed="22.00" length="1.43" width="3.50" shape="1290.40,549.13 1291.11,547.89"/>
        <lane id=":437641744_0_2" index="2" speed="22.00" length="1.43" width="3.50" shape="1289.33,552.46 1290.04,551.23"/>
    </edge>
    <edge id=":437641745_0" function="internal">
        <lane id=":437641745_0_0" index="0" speed="13.90" length="0.30" width="3.50" shape="1339.37,586.09 1339.09,586.00"/>
        <lane id=":437641745_0_1" index="1" speed="13.90" length="0.30" width="3.50" shape="1340.45,582.76 1340.16,582.67"/>
        <lane id=":437641745_0_2" index="2" speed="13.90" length="0.30" width="3.50" shape="1341.52,579.43 1341.23,579.34"/>
    </edge>
    <edge id=":Custom29_0" function="internal">
        <lane id=":Custom29_0_0" index="0" speed="13.90" length="5.11" width="3.50" shape="299.77,986.23 298.42,987.04 297.44,987.06 296.84,986.29 296.61,984.73"/>
    </edge>
    <edge id=":cluster_gneJ0_gneJ1_0" function="internal">
        <lane id=":cluster_gneJ0_gneJ1_0_0" index="0" speed="22.00" length="15.73" width="3.50" shape="970.69,442.87 985.56,447.98"/>
        <lane id=":cluster_gneJ0_gneJ1_0_1" index="1" speed="22.00" length="15.73" width="3.50" shape="969.56,446.39 984.50,451.32"/>
        <lane id=":cluster_gneJ0_gneJ1_0_2" index="2" speed="22.00" length="15.73" width="3.50" shape="968.43,449.91 983.44,454.65"/>
    </edge>

    <edge id="-111050965" from="112872188" to="Custom29" priority="-1" shape="497.31,580.47 481.18,606.66 475.51,616.59 456.79,649.36 452.32,658.87 436.46,692.66 425.52,715.95 398.64,773.22 378.86,815.31 365.00,844.85 357.16,861.56 344.52,888.13 335.27,907.57 305.16,970.83 298.19,985.48">
        <lane id="-111050965_0" index="0" speed="13.90" length="451.88" width="3.50" shape="499.05,580.98 482.69,607.55 477.03,617.46 458.34,650.17 453.90,659.61 438.04,693.40 427.10,716.69 400.22,773.96 380.44,816.05 366.58,845.59 358.74,862.31 346.10,888.88 336.85,908.32 306.74,971.58 299.77,986.23"/>
    </edge>
    <edge id="-119097" from="113025971" to="Custom26" priority="-1" shape="1344.81,570.64 1371.91,579.71 1672.94,676.25">
        <lane id="-119097_0" index="0" speed="22.00" length="344.50" width="3.50" shape="1347.72,562.39 1374.63,571.39 1675.61,667.92"/>
        <lane id="-119097_1" index="1" speed="22.00" length="344.50" width="3.50" shape="1346.61,565.71 1373.54,574.72 1674.54,671.25"/>
        <lane id="-119097_2" index="2" speed="22.00" length="344.50" width="3.50" shape="1345.50,569.03 1372.45,578.05 1673.47,674.58"/>
    </edge>
    <edge id="-119102" from="Custom27" to="437641745" priority="-1" shape="1671.26,683.95 1488.44,625.03 1341.92,577.72">
        <lane id="-119102_0" index="0" speed="13.90" length="345.91" width="3.50" shape="1668.58,692.28 1485.75,633.36 1339.37,586.09"/>
        <lane id="-119102_1" index="1" speed="13.90" length="345.91" width="3.50" shape="1669.65,688.95 1486.83,630.03 1340.45,582.76"/>
        <lane id="-119102_2" index="2" speed="13.90" length="345.91" width="3.50" shape="1670.72,685.62 1487.90,626.70 1341.52,579.43"/>
    </edge>
    <edge id="-119155" from="Custom28" to="112685489" priority="-1" shape="12.29,38.45 25.08,50.60 64.07,86.24 64.51,86.60 118.70,126.29 139.09,141.64 139.34,141.82 161.22,156.39 161.40,156.50 203.49,182.08 218.19,191.60 218.32,191.68 237.41,203.29 237.85,203.53 262.34,215.41 262.51,215.49 279.35,222.92 279.62,223.02 307.76,233.63 308.01,233.72 334.61,242.22 478.63,291.16">
        <lane id="-119155_0" index="0" speed="29.06" length="534.94" width="3.50" shape="18.32,32.11 31.05,44.20 69.97,79.78 69.87,79.68 123.92,119.26 144.35,134.65 166.07,149.11 165.95,149.03 208.14,174.67 222.94,184.25 241.95,195.81 241.86,195.75 266.16,207.54 282.87,214.91 282.68,214.82 310.85,225.44 337.35,233.91 481.48,282.89"/>
        <lane id="-119155_1" index="1" speed="29.06" length="534.94" width="3.50" shape="15.91,34.64 28.66,46.76 67.61,82.36 67.73,82.45 121.83,122.07 142.25,137.44 142.33,137.50 164.13,152.02 206.28,177.63 221.04,187.19 240.13,198.80 240.25,198.86 264.63,210.69 281.46,218.11 309.61,228.72 336.25,237.23 480.32,286.19"/>
        <lane id="-119155_2" index="2" speed="29.06" length="534.94" width="3.50" shape="13.50,37.18 26.27,49.32 65.25,84.95 65.58,85.22 119.74,124.88 140.14,140.24 140.34,140.38 162.19,154.93 162.31,155.01 204.42,180.60 219.14,190.13 219.23,190.19 238.32,201.79 238.65,201.97 263.10,213.84 263.24,213.90 280.05,221.32 280.23,221.38 308.38,231.99 308.57,232.06 335.16,240.56 479.26,289.52"/>
    </edge>
    <edge id="-119200_1" from="437608874" to="112664009" priority="-1" shape="623.93,349.14 601.24,342.05">
        <lane id="-119200_1_0" index="0" speed="13.90" length="23.62" width="3.50" shape="621.18,357.45 598.63,350.40"/>
        <lane id="-119200_1_1" index="1" speed="13.90" length="23.62" width="3.50" shape="622.22,354.11 599.67,347.06"/>
        <lane id="-119200_1_2" index="2" speed="13.90" length="23.62" width="3.50" shape="623.27,350.77 600.72,343.72"/>
    </edge>
    <edge id="-119200_2" from="112664009" to="112703313" priority="-1" shape="576.48,334.19 482.33,304.29">
        <lane id="-119200_2_0" index="0" speed="13.90" length="98.79" width="3.50" shape="573.83,342.53 479.68,312.63"/>
        <lane id="-119200_2_1" index="1" speed="13.90" length="98.79" width="3.50" shape="574.89,339.19 480.74,309.29"/>
        <lane id="-119200_2_2" index="2" speed="13.90" length="98.79" width="3.50" shape="575.95,335.86 481.80,305.96"/>
    </edge>
    <edge id="-119200_3" from="112703313" to="Custom32" priority="-1" shape="469.29,300.09 441.45,289.41 441.11,289.29 413.15,280.70 325.75,251.57 284.66,234.06 264.50,224.22 204.96,193.05 170.65,173.20 146.91,158.47 112.69,133.27 69.07,98.46 48.71,81.57 3.62,38.71">
        <lane id="-119200_3_0" index="0" speed="13.90" length="542.52" width="3.50" shape="466.16,308.26 438.32,297.58 438.37,297.60 410.48,289.03 322.65,259.76 281.02,242.02 260.55,232.03 200.74,200.72 166.15,180.71 142.00,165.72 107.36,140.22 63.55,105.25 42.90,88.12 -2.41,45.05"/>
        <lane id="-119200_3_1" index="1" speed="13.90" length="542.52" width="3.50" shape="467.41,304.99 439.57,294.31 439.46,294.28 411.55,285.70 323.89,256.48 282.48,238.84 262.13,228.91 202.43,197.65 167.95,177.70 143.96,162.82 109.49,137.44 65.76,102.53 45.22,85.50 -0.00,42.51"/>
        <lane id="-119200_3_2" index="2" speed="13.90" length="542.52" width="3.50" shape="468.67,301.73 440.82,291.04 440.56,290.95 412.62,282.37 325.13,253.21 283.93,235.65 263.71,225.78 204.12,194.58 169.75,174.70 145.93,159.92 111.62,134.66 67.97,99.82 47.55,82.88 2.41,39.97"/>
    </edge>
    <edge id="111050965" from="Custom29" to="112872188" priority="-1" shape="298.19,985.48 305.16,970.83 335.27,907.57 344.52,888.13 357.15,861.60 365.00,844.85 378.86,815.31 398.64,773.22 425.52,715.95 436.46,692.66 452.32,658.87 456.79,649.36 475.51,616.59 481.18,606.66 497.31,580.47">
        <lane id="111050965_0" index="0" speed="13.90" length="452.63" width="3.50" shape="283.97,978.71 290.94,964.06 321.05,900.80 330.30,881.36 342.91,854.87 350.74,838.16 364.60,808.61 384.38,766.53 411.26,709.26 422.20,685.97 438.06,652.18 442.80,642.09 461.83,608.78 467.63,598.62 484.06,571.95"/>
        <lane id="111050965_1" index="1" speed="13.90" length="452.63" width="3.50" shape="287.13,980.22 294.10,965.57 324.21,902.31 333.46,882.87 346.07,856.37 353.91,839.65 367.77,810.10 387.55,768.01 414.43,710.74 425.37,687.45 441.23,653.66 445.91,643.71 464.87,610.51 470.64,600.41 486.76,574.23"/>
        <lane id="111050965_2" index="2" speed="13.90" length="452.63" width="3.50" shape="290.29,981.72 297.26,967.07 327.37,903.81 336.62,884.37 349.24,857.86 357.08,841.13 370.94,811.59 390.72,769.50 417.60,712.23 428.54,688.94 444.40,655.15 449.02,645.32 467.91,612.25 473.65,602.20 489.86,575.88"/>
        <lane id="111050965_3" index="3" speed="13.90" length="452.63" width="3.50" shape="293.45,983.22 300.42,968.57 330.53,905.31 339.78,885.87 352.40,859.36 360.25,842.62 374.11,813.08 393.89,770.99 420.77,713.72 431.71,690.43 447.57,656.64 452.13,646.94 470.95,613.99 476.66,603.98 492.89,577.64"/>
        <lane id="111050965_4" index="4" speed="13.90" length="452.63" width="3.50" shape="296.61,984.73 303.58,970.08 333.69,906.82 342.94,887.38 355.57,860.85 363.42,844.11 377.28,814.57 397.06,772.48 423.94,715.21 434.88,691.92 450.74,658.13 455.24,648.55 473.99,615.72 479.67,605.77 495.97,579.31"/>
    </edge>
    <edge id="120086871" from="113214327" to="112664093" priority="-1" shape="545.13,489.90 590.85,437.91">
        <lane id="120086871_0" index="0" speed="13.90" length="69.28" width="3.50" shape="541.14,486.49 586.91,434.44"/>
        <lane id="120086871_1" index="1" speed="13.90" length="69.28" width="3.50" shape="543.82,488.74 589.54,436.75"/>
    </edge>
    <edge id="120086874" from="112662748" to="112872188" priority="-1" shape="551.82,496.49 520.63,537.09 501.25,557.97">
        <lane id="120086874_0" index="0" speed="13.90" length="80.18" width="3.50" shape="558.76,501.82 527.32,542.74 507.66,563.92"/>
        <lane id="120086874_1" index="1" speed="13.90" length="80.18" width="3.50" shape="555.99,499.69 524.64,540.48 505.10,561.54"/>
        <lane id="120086874_2" index="2" speed="13.90" length="80.18" width="3.50" shape="553.21,497.56 521.97,538.22 502.53,559.16"/>
    </edge>
    <edge id="12390612" from="112664009" to="112664093" priority="-1" shape="573.48,344.80 569.89,345.16 569.73,345.18 569.56,345.22 551.52,350.11 551.33,350.17 551.15,350.25 544.24,353.67 544.01,353.81 537.03,358.56 536.85,358.70 536.68,358.86 527.12,369.19 526.98,369.36 526.86,369.55 526.76,369.75 522.67,379.12 522.61,379.29 522.56,379.46 521.18,385.36 521.14,385.54 519.89,394.43 519.87,394.58 519.87,394.74 519.95,400.72 519.96,400.87 519.98,401.02 521.57,410.65 521.61,410.85 521.67,411.04 521.76,411.23 528.15,423.90 528.24,424.07 528.36,424.23 528.49,424.38 535.63,431.83 535.81,431.99 536.00,432.14 545.78,438.33 545.95,438.42 546.11,438.50 546.29,438.56 546.47,438.60 559.13,441.09 559.33,441.12 559.53,441.13 559.73,441.12 573.61,439.60 573.81,439.57 574.01,439.52 574.20,439.45 574.38,439.36 585.38,433.15">
        <lane id="12390612_0" index="0" speed="13.90" length="169.13" width="4.00" shape="573.68,346.79 570.09,347.15 552.04,352.04 545.13,355.46 538.16,360.21 528.59,370.55 524.50,379.92 523.13,385.81 521.87,394.71 521.95,400.69 523.54,410.32 529.94,423.00 537.07,430.44 537.16,430.51 546.85,436.64 559.51,439.13 573.39,437.61 584.40,431.41"/>
    </edge>
    <edge id="12391897" from="112685489" to="112685553" priority="-1" shape="494.70,284.82 522.29,276.95 522.48,276.88 522.66,276.80 542.74,266.33 542.90,266.23 563.67,252.87 563.89,252.70 574.81,243.34 591.26,233.01 601.43,227.09 611.63,223.28 619.02,221.47 631.27,220.55 642.21,220.84 651.83,222.34 660.79,224.30 676.10,228.72 699.21,236.82 699.39,236.88 702.35,237.61 709.12,239.30 709.40,239.35 717.09,240.13 717.39,240.14 731.37,239.51 731.56,239.49 731.74,239.46 731.92,239.41 737.47,237.56 747.40,233.83 747.51,233.79 756.54,229.76 756.69,229.69 756.83,229.60 756.96,229.50 764.58,223.46">
        <lane id="12391897_0" index="0" speed="13.90" length="292.52" width="4.00" shape="494.15,282.90 521.74,275.03 541.81,264.56 562.59,251.19 573.62,241.73 590.22,231.30 600.57,225.28 611.04,221.37 618.71,219.49 631.22,218.55 642.39,218.84 652.20,220.37 661.28,222.36 676.71,226.81 699.87,234.93 702.83,235.67 709.60,237.36 717.29,238.14 731.28,237.51 736.80,235.67 746.70,231.96 755.72,227.93 763.34,221.89"/>
    </edge>
    <edge id="12392104" from="112687141" to="112687059_1" priority="-1" shape="699.60,301.62 699.71,301.40 699.78,301.23 699.83,301.07 699.87,300.90 699.90,300.72 701.77,282.22 701.78,282.03 701.78,281.84 701.75,281.65 699.07,267.08 699.02,266.87 698.95,266.67 698.86,266.48 692.96,255.72 692.83,255.52 692.68,255.33 686.82,248.97 686.72,248.88 679.68,242.20 679.53,242.07 679.36,241.96 679.18,241.86 666.57,235.70 666.37,235.62 655.16,231.55 654.94,231.49 651.46,230.65 651.30,230.62 651.13,230.60 637.12,229.57 636.95,229.56 630.00,229.65 629.79,229.67 625.59,230.17 625.42,230.19 612.19,232.92 612.02,232.96 611.86,233.02 606.31,235.20 606.07,235.32 599.16,239.18 598.98,239.30 594.08,242.80 593.91,242.94 593.76,243.09 586.91,250.73 586.76,250.92 586.63,251.12 582.53,258.83 582.44,259.01 582.37,259.20 580.36,266.00 580.31,266.21 578.44,276.78 578.41,276.95 578.41,277.13 578.42,285.23 578.43,285.41 578.46,285.59 578.50,285.77 578.56,285.94 582.92,297.31 582.98,297.46 583.06,297.61 583.15,297.75 593.87,312.80 594.01,312.97 598.75,318.32">
        <lane id="12392104_0" index="0" speed="13.90" length="235.14" width="4.00" shape="697.80,300.74 697.89,300.56 697.92,300.45 699.78,281.99 697.08,267.39 691.16,256.63 685.36,250.35 678.25,243.63 665.66,237.49 654.44,233.43 650.94,232.59 636.90,231.56 630.02,231.66 625.74,232.17 612.59,234.88 607.01,237.09 600.12,240.95 595.21,244.47 588.35,252.14 584.27,259.83 582.27,266.62 580.41,277.13 580.44,285.25 584.81,296.63 595.53,311.67 600.25,316.99"/>
    </edge>
    <edge id="12393068" from="113177751" to="112687059" priority="-1" shape="793.72,230.31 791.16,236.29 791.10,236.48 791.05,236.66 791.02,236.85 791.00,237.05 790.81,248.09 790.82,248.31 790.86,248.54 790.92,248.75 793.87,257.59 793.95,257.79 794.05,257.99 801.91,270.97 801.98,271.08 806.92,278.22 807.02,278.35 807.13,278.47 807.25,278.59 809.97,280.97 813.30,285.32 817.46,292.65 821.64,304.10 824.57,315.25 826.11,329.41 826.17,333.97 826.18,334.15 826.21,334.33 831.51,361.77 831.56,361.96 831.63,362.15 836.64,374.28 836.71,374.44 836.79,374.58 848.19,392.74 848.29,392.88 848.40,393.01 848.53,393.14 861.32,405.02">
        <lane id="12393068_0" index="0" speed="13.90" length="193.05" width="4.00" shape="795.56,231.09 793.00,237.07 793.02,237.05 793.00,237.08 793.00,237.10 793.00,237.17 792.81,248.12 792.81,248.09 792.81,248.10 792.83,248.16 795.77,256.95 795.77,256.97 795.80,257.02 803.62,269.93 803.65,269.97 808.56,277.08 808.55,277.06 808.57,277.09 808.62,277.13 811.44,279.60 814.97,284.21 819.28,291.81 823.55,303.50 826.54,314.89 828.11,329.29 828.17,333.94 828.17,333.93 828.18,333.98 833.47,361.39 833.47,361.36 833.49,361.42 838.49,373.52 838.50,373.55 838.51,373.55 849.88,391.68 849.87,391.65 849.87,391.65 849.92,391.70 862.91,403.77"/>
    </edge>
    <edge id="12393070" from="112694754" to="112694835" priority="-1" shape="754.30,369.10 756.09,369.07 756.23,369.07 768.75,368.01 768.95,367.99 769.14,367.94 784.45,363.52 784.63,363.46 784.80,363.39 792.43,359.51 792.57,359.43 792.71,359.34 801.68,352.79 801.81,352.68 801.93,352.57 802.05,352.44 807.54,345.71 807.68,345.52 810.36,341.27 810.46,341.10 810.54,340.92 816.64,325.08 816.70,324.90 816.75,324.71 816.77,324.52 817.40,316.53 817.40,316.31 817.38,316.10 815.86,305.13 815.83,304.95 815.78,304.76 813.59,298.36 813.52,298.19 813.44,298.04 813.35,297.89 808.31,290.41 808.20,290.26 805.41,286.86 805.26,286.69 805.08,286.54 800.83,283.27 800.70,283.18 793.69,278.61 793.51,278.51 793.33,278.43 793.13,278.36 776.97,273.92 776.79,273.88 776.60,273.85 776.41,273.85 766.72,273.98 766.56,273.98 766.41,274.00 755.91,275.81 755.72,275.85 755.55,275.91 753.00,276.86">