<?xml version='1.0' encoding='UTF-8'?>
<nodes>
  <node id="100636147" x="140.628475" y="674.144116" shape="138.352783,669.340864 145.613054,672.299131 143.118802,678.839675 140.700575,678.615671 137.094491,676.884729 135.565647,675.762069 138.352783,669.340864 138.352783,669.340864"/>
  <node id="102452707" x="-384.814542" y="878.814521" shape="-384.269047,874.375778 -380.936251,876.587671 -380.502542,880.000546 -383.176162,882.975736 -385.325543,883.257367 -388.675419,881.071428 -386.489480,877.721551 -386.480940,877.708575 -384.269047,874.375778 -384.269047,874.375778"/>
  <node id="102452710" x="-276.724567" y="975.948329" shape="-276.457842,971.484154 -272.993192,973.483204 -276.863009,980.418322 -280.383626,978.519571 -281.036567,974.762304 -278.362947,971.787114 -276.457842,971.484154 -276.457842,971.484154"/>
  <node id="103236846" x="617.067978" y="87.30243" shape="617.399722,82.842615 620.834876,84.891937 621.516867,86.847028 620.101633,90.588300 617.167444,91.773460 613.550834,90.064621 612.614470,87.710189 614.069666,83.984279 617.399722,82.842615 617.399722,82.842615"/>
  <node id="103236847" x="345.605445" y="-18.725963" shape="346.036910,-23.177237 349.425343,-21.051555 350.058997,-19.133241 348.603399,-15.407488 345.178834,-14.274221 341.788085,-16.396207 341.150839,-19.121549 343.249150,-22.526999 346.036910,-23.177237 346.036910,-23.177237"/>
  <node id="103236850" x="43.749698" y="183.390243" shape="44.153452,178.936370 47.555049,181.040922 48.167655,184.084256 45.845262,187.341017 43.403018,187.848921 39.974747,185.788106 39.297208,182.971514 41.413187,179.577014 44.153452,178.936370 44.153452,178.936370"/>
  <node id="103236853" x="-106.436515" y="106.532825" shape="-104.624040,99.481943 -101.172627,101.503761 -100.238399,102.714009 -99.156476,106.564911 -105.330607,108.476267 -105.895554,108.458276 -108.654813,106.251486 -104.624040,99.481943 -104.624040,99.481943"/>
  <node id="105015362" x="879.789527" y="969.605937" shape="874.529412,963.811009 878.814242,964.381110 884.838654,967.945722 879.405301,977.422738 873.305551,973.988636 871.997516,970.337072 874.529412,963.811009 874.529412,963.811009"/>
  <node id="105015364" x="814.793157" y="1084.385755" shape="812.620056,1081.127658 815.753882,1082.631615 819.262162,1084.553065 817.340712,1088.061345 815.831308,1089.598455 809.764395,1086.106670 812.620056,1081.127658 812.620056,1081.127658"/>
  <node id="105015830" x="764.912003" y="925.026404" shape="765.228242,917.206558 771.357623,920.587487 772.704114,924.296333 770.171326,930.822051 764.366345,932.833597 758.338854,929.274193 757.108181,925.618312 759.756183,919.138491 765.228242,917.206558 765.228242,917.206558"/>
  <node id="110152673" x="-524.329907" y="632.361307" shape="-524.724848,627.060928 -520.536131,629.993340 -519.024538,632.682332 -523.943839,637.662340 -529.635806,632.049163 -524.724848,627.060928 -524.724848,627.060928"/>
  <node id="110152677" x="-466.42337" y="537.731943" shape="-466.096037,533.271802 -462.658858,535.317725 -461.954371,537.564478 -463.607998,541.206663 -466.805262,542.187744 -470.217146,540.099910 -470.889215,537.969071 -469.292579,534.301544 -466.096037,533.271802 -466.096037,533.271802"/>
  <node id="110152680" x="-408.818034" y="440.954138" shape="-410.940102,436.081066 -403.745251,439.367673 -406.572230,445.771436 -409.145367,445.414279 -412.582546,443.368356 -413.929672,442.410559 -410.940102,436.081066 -410.940102,436.081066"/>
  <node id="122762217" x="-506.890317" y="-52.403648" shape="-507.863203,-56.768679 -503.982024,-55.800975 -502.520825,-53.356299 -503.506501,-49.479645 -505.799471,-48.066592 -509.705454,-48.928737 -511.210859,-51.249126 -510.406259,-55.167368 -507.863203,-56.768679 -507.863203,-56.768679"/>
  <node id="122762534" x="-585.972613" y="-68.64296" shape="-587.083002,-72.975054 -583.173171,-72.130527 -581.652071,-69.797482 -582.456671,-65.879240 -584.823996,-64.320845 -588.741135,-65.130798 -590.267110,-67.395042 -589.547645,-71.329807 -587.083002,-72.975054 -587.083002,-72.975054"/>
  <node id="122773409" x="196.505564" y="534.846989" shape="194.166501,529.696379 196.471037,530.374986 201.781408,532.806040 198.546513,540.122833 196.552604,539.318878 191.354954,537.186052 194.166501,529.696379 194.166501,529.696379"/>
  <node id="122782374" x="485.60775" y="813.416817" shape="483.021159,808.773591 485.381072,808.950430 489.044853,810.555642 490.639136,811.703587 487.973702,818.176257 485.550677,817.888589 481.996089,816.054222 480.662262,815.364161 483.021159,808.773591 483.021159,808.773591"/>
  <node id="1347363882" x="793.975454" y="872.33646" shape="792.872501,867.137086 798.982407,870.553085 795.108185,877.529428 788.978804,874.148499 789.508792,872.557671 791.118488,868.895857 792.872501,867.137086 792.872501,867.137086"/>
  <node id="1997954759" x="789.849952" y="513.935003" shape="791.908068,509.964593 794.261150,513.199250 794.303519,513.527885 792.847786,517.253586 789.761631,518.406267 786.219948,516.547104 785.405091,514.428165 786.788506,510.675011 791.908068,509.964593 791.908068,509.964593"/>
  <node id="26867544" x="610.759512" y="1193.440596" shape="609.702030,1188.231783 615.781856,1191.701037 613.799425,1195.175223 611.815748,1198.649662 605.736753,1195.178954 606.290681,1193.268706 608.215725,1189.762397 609.702030,1188.231783 609.702030,1188.231783"/>
  <node id="26867546" x="645.573087" y="1132.437157" shape="644.510480,1127.229387 650.593716,1130.692657 648.614705,1134.168792 646.630101,1137.646065 640.550587,1134.176265 641.109091,1132.167455 643.110451,1128.704139 644.510480,1127.229387 644.510480,1127.229387"/>
  <node id="26867548" x="826.598517" y="813.987518" shape="827.091805,806.176842 833.143031,809.695742 834.596416,812.970849 831.534888,820.361860 827.701388,819.186910 821.305380,815.983188 824.602847,808.694381 827.091805,806.176842 827.091805,806.176842"/>
  <node id="26978163" x="-773.302909" y="1076.1478" shape="-777.047845,1067.723107 -771.028959,1069.231938 -764.280275,1074.252523 -770.049997,1084.774420 -775.999788,1082.909962 -782.201243,1078.560195 -777.047845,1067.723107 -777.047845,1067.723107"/>
  <node id="2862774359" x="46.556846" y="1062.52185" shape="45.170616,1060.767322 48.792206,1062.465583 44.689428,1072.547455 40.977074,1071.058017 37.493253,1068.493184 37.838285,1067.772871 45.170616,1060.767322 45.170616,1060.767322"/>
  <node id="3003111737" x="219.352851" y="-436.959659" shape="217.133549,-440.842274 223.824889,-436.930135 222.012455,-433.364314 219.382584,-432.487622 215.793061,-434.252650 214.915178,-437.513787 217.133549,-440.842274 217.133549,-440.842274"/>
  <node id="3003111743" x="341.39521" y="-289.35309" shape="342.791106,-296.498121 346.355138,-294.682172 347.905202,-292.611925 348.644210,-288.680785 341.019654,-287.148786 339.613194,-290.261065 339.857100,-290.976117 342.791106,-296.498121 342.791106,-296.498121"/>
  <node id="3003111755" x="374.071215" y="-126.065678" shape="374.805496,-130.477121 378.040938,-128.125119 378.747745,-126.889927 377.126179,-123.233354 369.958431,-124.984409 370.396227,-128.960379 374.805496,-130.477121 374.805496,-130.477121"/>
  <node id="3003111756" x="193.251236" y="-186.347002" shape="193.939386,-190.765876 197.199226,-188.447806 197.716722,-186.103215 195.735498,-182.628341 192.563265,-181.928100 189.303332,-184.246037 191.621269,-187.505971 193.939386,-190.765876 193.939386,-190.765876"/>
  <node id="3003111763" x="314.213643" y="-266.170986" shape="314.291072,-270.642452 316.017715,-267.034308 317.743053,-263.424485 314.134088,-261.699558 313.123825,-261.833672 310.089900,-264.440452 310.682928,-268.915808 314.291072,-270.642452 314.291072,-270.642452"/>
  <node id="3003111767" x="235.953426" y="-162.000042" shape="236.352267,-166.454357 239.756183,-164.353558 240.418929,-161.756555 238.437938,-158.281547 234.962931,-160.262538 231.487940,-162.243829 233.469164,-165.718703 236.352267,-166.454357 236.352267,-166.454357"/>
  <node id="3003111778" x="245.974097" y="-423.428621" shape="246.060366,-427.899925 249.602902,-426.042388 250.446143,-423.400332 248.634694,-419.834010 245.068372,-421.645460 241.502059,-423.458145 243.314493,-427.023966 246.060366,-427.899925 246.060366,-427.899925"/>
  <node id="3003111779" x="-285.649277" y="-525.005115" shape="-286.398351,-529.414070 -282.571557,-528.249747 -281.179528,-525.151208 -282.850553,-521.516972 -285.382031,-520.540971 -289.060245,-522.112832 -286.398351,-529.414070 -286.398351,-529.414070"/>
  <node id="3003111787" x="-360.711948" y="-387.152803"/>
  <node id="3003111788" x="24.625716" y="-550.195727" shape="21.779361,-553.645113 25.436200,-552.024146 29.093070,-550.402482 27.471532,-546.745896 24.541772,-545.724379 20.998271,-547.580073 20.158394,-549.988275 21.779361,-553.645113 21.779361,-553.645113"/>
  <node id="3003111792" x="-42.785678" y="-383.028049" shape="-42.765845,-387.500141 -39.196105,-385.695438 -38.314400,-383.115652 -40.032829,-379.503588 -47.256953,-382.940296 -45.538645,-386.552417 -42.765845,-387.500141 -42.765845,-387.500141"/>
  <node id="3003111793" x="-91.339302" y="-498.077742" shape="-91.472118,-502.547905 -87.842861,-500.866093 -86.867651,-498.143591 -88.603632,-494.539931 -91.206942,-493.607565 -94.836028,-495.289748 -91.472118,-502.547905 -91.472118,-502.547905"/>
  <node id="3003111794" x="-8.850343" y="-458.340575" shape="-9.896599,-462.688603 -5.999674,-461.786397 -4.378633,-458.402315 -6.117925,-454.800251 -7.805698,-453.992159 -11.702289,-454.895810 -13.321994,-458.274726 -11.586013,-461.878386 -9.896599,-462.688603 -9.896599,-462.688603"/>
  <node id="3003111795" x="184.587016" y="-366.279706" shape="184.558461,-370.751751 189.335958,-368.444170 188.729049,-364.602724 184.634617,-361.807823 181.038070,-363.558496 180.116468,-366.160541 181.809355,-369.784645 184.558461,-370.751751 184.558461,-370.751751"/>
  <node id="3003111799" x="302.086019" y="-277.659011" shape="302.186320,-282.130022 305.448590,-280.607420 306.462289,-276.738000 298.725457,-274.708312 297.709123,-278.577041 298.569391,-280.421858 302.186320,-282.130022 302.186320,-282.130022"/>
  <node id="3003111800" x="99.316369" y="-406.111227" shape="96.583951,-409.651551 103.786917,-406.230392 102.094030,-402.606288 99.355646,-401.639264 95.762364,-403.396628 94.844659,-406.049487 96.583951,-409.651551 96.583951,-409.651551"/>
  <node id="3003111801" x="63.335515" y="-332.541192" shape="63.296238,-337.013155 66.889520,-335.255791 67.806789,-332.628978 66.088508,-329.016844 62.476374,-330.735125 58.864237,-332.453589 60.582666,-336.065653 63.296238,-337.013155 63.296238,-337.013155"/>
  <node id="3003111803" x="736.253286" y="598.898518" shape="737.770832,594.691731 740.529243,597.588482 740.687184,598.314951 739.380479,602.095496 734.724646,603.101286 731.973887,600.197266 731.788794,599.159875 733.365505,595.483738 737.770832,594.691731 737.770832,594.691731"/>
  <node id="3003111804" x="754.971344" y="605.368215" shape="755.728659,599.395236 760.814341,606.820587 757.514185,609.080890 757.504708,609.087364 751.719365,613.028152 746.652638,605.589854 749.008743,601.191208 755.728659,599.395236 755.728659,599.395236"/>
  <node id="3003111805" x="707.02854" y="679.15828" shape="706.980583,674.686401 710.577269,676.436787 711.497603,678.992515 709.842590,682.634071 707.077268,683.630150 703.480280,681.880384 702.559440,678.993524 704.478885,675.484146 706.980583,674.686401 706.980583,674.686401"/>
  <node id="3003111806" x="863.586956" y="750.333981" shape="862.468177,745.137989 868.588455,748.535369 866.647095,752.032671 866.629415,752.064138 865.413608,754.202119 864.622212,755.563031 858.570986,752.044131 859.117869,750.499086 860.773420,746.857774 862.468177,745.137989 862.468177,745.137989"/>
  <node id="3003111807" x="656.165617" y="962.903085"/>
  <node id="3003111808" x="725.028063" y="993.182602" shape="723.968087,987.974296 730.049573,991.440639 726.104692,998.387491 720.012150,994.940618 720.561379,993.403362 722.171444,989.741711 723.968087,987.974296 723.968087,987.974296"/>
  <node id="3003111809" x="33.770402" y="1093.915404" shape="33.582133,1089.447233 37.231977,1091.083886 38.240718,1093.787823 36.554656,1097.415108 33.962338,1098.383419 30.311151,1096.749762 31.944809,1093.098575 33.582133,1089.447233 33.582133,1089.447233"/>
  <node id="3003111813" x="56.713501" y="1191.423145" shape="56.097305,1186.143912 57.902815,1187.112051 60.875965,1189.787940 62.027794,1191.514212 57.328677,1196.702497 51.399191,1191.333105 56.097305,1186.143912 56.097305,1186.143912"/>
  <node id="3051157866" x="861.97086" y="29.715594" shape="862.016273,25.243689 865.575632,27.068781 863.750540,30.628140 861.925410,34.187499 858.366066,32.362377 857.498902,29.755544 859.255726,26.161998 862.016273,25.243689 862.016273,25.243689"/>
  <node id="318684503" x="-922.240339" y="816.591866" shape="-921.280328,813.226100 -885.699375,823.374783 -887.619396,830.106315 -889.415062,833.782014 -923.200350,819.957632 -923.071198,818.411117 -921.280328,813.226100 -921.280328,813.226100"/>
  <node id="318684657" x="-778.86486" y="1395.452989" shape="-769.809235,1310.913083 -765.810342,1311.388552 -758.943299,1312.746391 -775.431339,1396.131908 -780.847923,1395.193255 -782.298381,1394.774070 -769.809235,1310.913083 -769.809235,1310.913083"/>
  <node id="3637777913" x="447.022482" y="888.186642" shape="447.079542,883.714870 450.634135,885.549227 446.966406,892.658426 443.411409,890.824852 442.550606,888.138426 444.377929,884.580211 447.079542,883.714870 447.079542,883.714870"/>
  <node id="3705745349" x="45.627134" y="-685.034834"/>
  <node id="3705745350" x="-23.441626" y="-581.541475" shape="-22.884754,-585.978805 -19.557639,-583.758375 -19.007952,-582.126742 -20.313208,-578.345696 -24.094254,-579.650952 -27.875690,-580.959169 -26.567909,-584.739343 -22.884754,-585.978805 -22.884754,-585.978805"/>
  <node id="3712423250" x="-251.188338" y="-241.793378" shape="-250.970363,-246.260199 -247.484097,-244.299090 -246.716855,-241.869815 -248.444299,-238.262054 -251.405062,-237.326496 -254.891877,-239.286628 -252.931746,-242.773444 -250.970363,-246.260199 -250.970363,-246.260199"/>
  <node id="4071797686" x="-730.247598" y="872.221514" shape="-778.812767,853.348956 -728.284239,869.156352 -730.295270,875.861257 -781.605780,864.125014 -780.929551,860.021228 -778.812767,853.348956 -778.812767,853.348956"/>
  <node id="443697174" x="5.793559" y="1144.24223" shape="6.376403,1133.790850 10.771234,1135.341514 13.811688,1137.940675 11.106350,1144.397976 6.344429,1149.528679 -1.743384,1142.134033 2.957951,1136.947757 6.376403,1133.790850 6.376403,1133.790850"/>
  <node id="448295594" x="942.095413" y="864.34122" shape="942.333826,856.518614 948.496545,859.838387 950.010409,862.807323 947.435307,870.381546 943.069608,869.566251 936.778775,866.273410 940.163223,859.024582 942.333826,856.518614 942.333826,856.518614"/>
  <node id="457724141" x="-94.448508" y="86.068288" shape="-95.611367,84.158377 -92.503108,85.604157 -92.222864,86.283947 -90.878648,92.413058 -94.769449,93.341320 -96.260983,93.119170 -99.712396,91.097352 -96.174215,85.057379 -96.142760,85.005503 -95.611367,84.158377 -95.611367,84.158377"/>
  <node id="457724152" x="-79.215201" y="106.380147" shape="-82.835065,100.063773 -77.254033,105.305987 -79.532574,108.593577 -86.465042,107.043324 -85.721084,103.113117 -85.625623,102.929569 -82.835065,100.063773 -82.835065,100.063773"/>
  <node id="457724205" x="-310.348118" y="484.424255" shape="-312.593922,479.606957 -309.837279,479.981391 -305.263731,482.875382 -308.138033,489.258045 -310.427357,488.895689 -313.972809,487.043724 -315.420901,486.010720 -312.593922,479.606957 -312.593922,479.606957"/>
  <node id="457724212" x="-74.061512" y="109.952031" shape="-73.542473,105.510117 -70.196557,107.702114 -69.609022,110.370760 -71.725001,113.765260 -74.485500,114.404023 -77.877499,112.284036 -78.488373,109.317285 -76.209832,106.029695 -73.542473,105.510117 -73.542473,105.510117"/>
  <node id="457724218" x="52.80081" y="-100.227354" shape="52.575909,-104.693831 56.239051,-103.087162 57.261692,-99.910282 55.223681,-96.468406 52.730728,-95.755767 49.181491,-97.600468 48.867698,-98.098827 48.738121,-102.096728 52.575909,-104.693831 52.575909,-104.693831"/>
  <node id="457724225" x="55.103277" y="-105.476888" shape="55.678471,-115.658693 59.550304,-114.654249 60.479721,-114.142559 63.399099,-111.408105 56.533181,-103.757768 52.870038,-105.364437 55.678471,-115.658693 55.678471,-115.658693"/>
  <node id="457724269" x="-188.133092" y="-290.344858" shape="-188.248612,-294.815502 -184.625889,-293.119660 -184.012501,-288.606833 -187.051158,-286.005570 -189.144765,-285.988653 -192.225059,-288.540473 -188.248612,-294.815502 -188.248612,-294.815502"/>
  <node id="457724296" x="21.412275" y="-91.237622" shape="21.379973,-93.473457 23.220324,-89.921963 14.352885,-83.877934 12.065266,-87.159213 11.913202,-87.527150 11.216795,-91.466060 21.379973,-93.473457 21.379973,-93.473457"/>
  <node id="457724314" x="-237.827993" y="-262.075946" shape="-235.063300,-265.591124 -233.357035,-261.973298 -233.706060,-260.341106 -236.742705,-257.737496 -238.448633,-257.647085 -241.743466,-259.915142 -239.475409,-263.209974 -238.681125,-263.884859 -235.063300,-265.591124 -235.063300,-265.591124"/>
  <node id="457724320" x="-126.261409" y="-422.737962" shape="-126.393769,-427.208139 -122.764683,-425.525956 -121.790134,-422.825715 -123.508442,-419.213594 -126.142934,-418.267396 -129.766777,-419.960843 -130.730295,-422.567501 -129.079110,-426.210794 -126.393769,-427.208139 -126.393769,-427.208139"/>
  <node id="457724324" x="-48.624579" y="-590.253718" shape="-51.511425,-593.669288 -44.190515,-590.836024 -45.498296,-587.055850 -48.491763,-585.783555 -52.121020,-587.465367 -53.089143,-589.993583 -51.511425,-593.669288 -51.511425,-593.669288"/>
  <node id="457724326" x="148.44423" y="-292.055228" shape="148.403700,-296.527180 151.997474,-294.770824 152.912564,-292.239593 151.272723,-288.591180 148.711664,-284.780032 144.827796,-285.736889 143.471277,-286.738299 141.412968,-290.168075 145.691237,-295.579576 148.403700,-296.527180 148.403700,-296.527180"/>
  <node id="457724329" x="239.292689" y="-251.221842" shape="241.357821,-255.188608 243.705181,-251.949796 238.555830,-246.810829 235.321763,-249.164721 234.824355,-251.037477 236.464196,-254.685890 241.357821,-255.188608 241.357821,-255.188608"/>
  <node id="457724339" x="-203.617173" y="-487.286681" shape="-203.787727,-491.755564 -200.144399,-490.104454 -202.574558,-482.937778 -206.470726,-483.843248 -208.086922,-487.140588 -206.415897,-490.774824 -203.787727,-491.755564 -203.787727,-491.755564"/>
  <node id="457724343" x="-145.367222" y="-615.820633" shape="-143.160238,-619.710263 -140.931328,-616.388824 -145.196668,-611.351750 -148.839996,-613.002860 -149.839110,-615.773497 -148.088064,-619.369861 -143.160238,-619.710263 -143.160238,-619.710263"/>
  <node id="457724410" x="160.815204" y="-483.71102" shape="160.870646,-488.182812 164.425903,-486.349742 165.150412,-482.612852 162.537794,-479.583953 156.454022,-484.701014 158.990490,-487.793962 160.870646,-488.182812 160.870646,-488.182812"/>
  <node id="459096487" x="301.39035" y="51.925911" shape="301.816961,47.474169 305.207710,49.596155 303.085724,52.986904 303.074305,53.004936 300.916255,56.372846 297.548345,54.214796 296.940241,51.482595 299.074938,48.099834 301.816961,47.474169 301.816961,47.474169"/>
  <node id="459096494" x="174.033662" y="-28.442738" shape="174.420758,-32.898089 177.830201,-30.806272 178.483771,-27.999422 176.349074,-24.616661 173.659764,-23.986260 170.244140,-26.067969 169.572780,-28.759810 171.610791,-32.201686 174.420758,-32.898089 174.420758,-32.898089"/>
  <node id="459096651" x="93.226231" y="-172.338749" shape="93.162101,-176.810425 96.765094,-175.073059 97.682789,-171.965801 95.601807,-168.549734 93.289568,-167.867062 89.686883,-169.605067 88.757317,-172.508466 90.680656,-176.015711 93.162101,-176.810425 93.162101,-176.810425"/>
  <node id="459096674" x="156.070186" y="-134.055797" shape="156.758157,-138.474699 160.018090,-136.156762 160.531050,-133.738470 158.492843,-130.296710 155.051083,-132.334917 155.029695,-132.347763 151.613628,-134.428745 153.694610,-137.844812 156.758157,-138.474699 156.758157,-138.474699"/>
  <node id="459096682" x="216.77493" y="-98.106511" shape="217.543536,-102.512103 220.760568,-100.134982 221.229536,-97.710925 219.131225,-94.305475 216.387834,-93.651160 212.978391,-95.742977 212.314066,-98.423838 214.352273,-101.865598 217.543536,-102.512103 217.543536,-102.512103"/>
  <node id="459096761" x="307.977556" y="-279.202457" shape="311.223611,-282.278677 312.386165,-278.451345 311.508271,-276.457635 307.900127,-274.730991 304.614985,-276.254048 303.601286,-280.123468 311.223611,-282.278677 311.223611,-282.278677"/>
  <node id="459096980" x="352.966064" y="-128.867535" shape="354.769671,-132.959845 357.160932,-130.417724 356.723136,-126.441754 354.241629,-124.581169 350.302311,-125.275263 350.774380,-132.765807 354.769671,-132.959845 354.769671,-132.959845"/>
  <node id="459097008" x="403.391811" y="-110.840071" shape="403.723313,-115.299904 407.158578,-113.250769 407.830985,-110.298097 405.621736,-106.963547 402.960346,-106.388797 399.571913,-108.514479 398.930660,-111.153325 400.965723,-114.596945 403.723313,-115.299904 403.723313,-115.299904"/>
  <node id="459097087" x="255.678243" y="-150.755552" shape="253.193731,-154.474047 256.668738,-152.493056 256.685973,-152.483117 260.141103,-150.467657 258.125643,-147.012527 254.909637,-146.349960 251.692605,-148.727081 251.212740,-150.999039 253.193731,-154.474047 253.193731,-154.474047"/>
  <node id="459097104" x="130.746254" y="42.582289" shape="131.120152,38.125811 134.535776,40.207520 135.199226,42.995858 133.087182,46.392808 130.348135,47.036669 126.943879,44.936422 126.292429,42.178010 128.397382,38.776661 131.120152,38.125811 131.120152,38.125811"/>
  <node id="459097114" x="88.154279" y="111.618927" shape="88.552398,107.164547 91.956654,109.264794 92.610385,111.997237 90.525295,115.410798 87.750525,116.072800 84.348928,113.968248 83.700337,111.215939 85.804304,107.813980 88.552398,107.164547 88.552398,107.164547"/>
  <node id="459097121" x="-88.72263" y="398.520466" shape="-89.880039,392.983282 -84.877384,396.237030 -83.180660,397.386194 -87.588358,404.062436 -92.475507,400.952731 -94.259814,399.677875 -89.880039,392.983282 -89.880039,392.983282"/>
  <node id="459097144" x="165.561037" y="269.362111" shape="165.930080,264.905228 169.347969,266.983215 170.014659,268.955601 168.558418,272.681103 165.119173,273.812365 161.735716,271.678772 161.128732,268.766566 163.378090,265.458940 165.930080,264.905228 165.930080,264.905228"/>
  <node id="459097155" x="120.853511" y="340.259441" shape="121.295375,335.809187 124.678832,337.942780 125.323506,340.121079 123.646198,343.752420 120.422443,344.710753 117.033820,342.585374 116.391751,339.954981 118.420023,336.507357 121.295375,335.809187 121.295375,335.809187"/>
  <node id="459097162" x="77.639887" y="409.157561" shape="78.070955,404.706249 81.459578,406.831628 79.334198,410.220251 79.319586,410.243199 77.148309,413.602598 73.788911,411.431321 73.183602,408.781361 75.267076,405.366813 78.070955,404.706249 78.070955,404.706249"/>
  <node id="459097170" x="35.054309" y="475.045945" shape="33.448741,469.621726 40.184344,472.662094 37.438160,480.175980 34.591181,479.494036 29.630090,476.651513 33.448741,469.621726 33.448741,469.621726"/>
  <node id="459097235" x="426.322243" y="-149.281718"/>
  <node id="459148129" x="299.667046" y="321.782081" shape="299.565503,317.311098 303.182906,319.018256 301.475748,322.635660 299.764148,326.253163 296.148442,324.542411 295.213424,322.188591 296.669665,318.463089 299.565503,317.311098 299.565503,317.311098"/>
  <node id="459148134" x="473.339478" y="391.470562" shape="473.239276,386.999549 476.856167,388.707792 477.793715,391.070844 476.331795,394.794120 473.406089,395.942202 469.802133,394.206835 473.239276,386.999549 473.239276,386.999549"/>
  <node id="459148139" x="588.876759" y="436.826472" shape="585.884074,433.503245 593.323492,436.350484 591.925590,440.098265 588.920130,441.298398 585.325241,439.544324 584.422567,437.226684 585.884074,433.503245 585.884074,433.503245"/>
  <node id="459148145" x="650.417882" y="459.78098" shape="650.357930,455.309246 653.959298,457.049978 654.874300,459.406358 653.391430,463.121341 650.388650,464.253020 646.822711,462.440819 645.971149,460.256968 647.369051,456.509187 650.357930,455.309246 650.357930,455.309246"/>
  <node id="459148195" x="797.453103" y="155.537832" shape="797.498553,151.065927 801.057897,152.891049 801.893697,155.007621 800.541628,158.772181 797.513491,160.009560 793.911953,158.269179 793.004214,155.993234 794.419448,152.251962 797.498553,151.065927 797.498553,151.065927"/>
  <node id="459148199" x="945.621805" y="208.753696" shape="942.533280,205.519347 946.297839,206.871416 946.340830,206.887416 950.073391,208.325466 948.635340,212.058027 946.041368,213.206107 942.311614,211.760793 941.181211,209.283907 942.533280,205.519347 942.533280,205.519347"/>
  <node id="459148237" x="848.585311" y="457.482529" shape="848.190872,453.027822 851.912413,454.494153 853.030771,456.994791 851.642777,460.746254 844.153460,458.081442 845.447070,454.296396 848.190872,453.027822 848.190872,453.027822"/>
  <node id="459148240" x="821.324728" y="448.165715" shape="818.331091,444.843345 825.756579,447.566802 824.462969,451.351848 821.748079,452.617768 818.017096,451.175627 816.870650,448.567203 818.331091,444.843345 818.331091,444.843345"/>
  <node id="459148241" x="682.372468" y="393.670721" shape="682.312379,389.198989 685.913801,390.939611 686.826546,393.269233 685.366105,396.993091 682.432420,398.142455 678.831052,396.401723 682.312379,389.198989 682.312379,389.198989"/>
  <node id="459148242" x="888.926115" y="355.097788" shape="888.506366,350.645394 892.236181,352.090552 890.791022,355.820367 890.786886,355.830954 889.320554,359.552495 885.599013,358.086164 884.469913,355.474971 885.950648,351.759136 888.506366,350.645394 888.506366,350.645394"/>
  <node id="459148244" x="731.361882" y="292.309524" shape="731.301423,287.837797 734.902988,289.578120 735.818084,291.932341 734.337349,295.648176 731.421971,296.781256 727.820549,295.040634 731.301423,287.837797 731.301423,287.837797"/>
  <node id="459148246" x="547.313881" y="680.185646" shape="548.935277,673.088388 552.573850,678.104125 549.395402,685.445615 547.281188,684.657662 539.327779,681.291166 542.306950,673.866576 544.941043,673.303085 548.935277,673.088388 548.935277,673.088388"/>
  <node id="459148274" x="767.664609" y="-201.447776" shape="767.247414,-209.262886 773.666380,-206.470599 771.857313,-199.891744 769.232747,-196.369298 762.839233,-199.219381 761.721020,-205.651792 764.839156,-208.157233 767.247414,-209.262886 767.247414,-209.262886"/>
  <node id="459148279" x="757.083648" y="-214.616264" shape="756.914727,-222.440679 763.241827,-219.446050 761.148156,-212.750849 758.484521,-209.489125 752.187838,-212.547194 751.629380,-219.438189 755.000098,-221.591851 756.914727,-222.440679 756.914727,-222.440679"/>
  <node id="459148291" x="257.056117" y="121.115098" shape="257.530212,116.668163 260.898122,118.826213 256.634847,125.567348 253.241555,123.449432 252.603145,120.701529 254.715189,117.304579 257.530212,116.668163 257.530212,116.668163"/>
  <node id="459148312" x="214.532275" y="188.813852" shape="219.780900,176.753507 223.163264,178.888832 223.332827,179.038869 225.864010,182.136144 217.541641,192.121981 214.163232,193.270735 210.745343,191.192748 210.076169,188.435542 212.161259,185.021981 219.780900,176.753507 219.780900,176.753507"/>
  <node id="459148316" x="339.847325" y="236.641596" shape="340.953958,232.308541 343.977748,234.927069 339.948868,241.112579 336.331465,239.405421 335.398333,237.095990 336.814415,233.355039 340.953958,232.308541 340.953958,232.308541"/>
  <node id="459148381" x="2.41225" y="252.157164" shape="2.758930,247.698486 6.187201,249.759301 4.126385,253.187572 2.050159,256.614617 -1.370967,254.541963 -2.033949,251.676216 0.129289,248.311636 2.758930,247.698486 2.758930,247.698486"/>
  <node id="459148389" x="-5.815902" y="265.738564" shape="-5.453811,261.281111 -2.032685,263.353765 -1.354142,266.043024 -3.382414,269.490648 -6.180449,270.195817 -9.600433,268.121278 -5.453811,261.281111 -5.453811,261.281111"/>
  <node id="459148393" x="188.643095" y="371.571298" shape="185.850408,368.078319 193.064820,370.901708 191.831802,374.706924 188.494453,376.040963 184.978178,374.134183 184.173100,371.709660 185.850408,368.078319 185.850408,368.078319"/>
  <node id="459148403" x="-155.21815" y="998.396855" shape="-155.616489,993.096730 -151.549321,995.839572 -149.912908,998.719980 -154.834180,1003.698040 -160.524248,998.088112 -155.616489,993.096730 -155.616489,993.096730"/>
  <node id="459148408" x="-115.089863" y="924.658783" shape="-114.934096,920.189361 -111.420865,922.101743 -110.618957,924.763682 -112.491239,928.298447 -115.243331,929.128285 -118.757545,927.217710 -116.846970,923.703496 -114.934096,920.189361 -114.934096,920.189361"/>
  <node id="459148413" x="-8.20491" y="728.300791" shape="-8.037511,723.831789 -4.529269,725.753309 -8.360677,732.770213 -11.873908,730.857831 -12.670594,728.060646 -10.692204,724.584157 -8.037511,723.831789 -8.037511,723.831789"/>
  <node id="459148422" x="42.181025" y="636.307959" shape="39.816045,631.548036 42.405160,631.841443 47.161699,634.452458 44.681257,640.998251 42.013626,640.776961 38.505384,638.855441 37.149289,638.020161 39.816045,631.548036 39.816045,631.548036"/>
  <node id="459148427" x="116.40808" y="504.779217" shape="114.024229,499.649182 116.556722,500.309552 121.558690,502.440154 118.747143,509.929827 116.183945,509.245733 111.278045,507.163068 114.024229,499.649182 114.024229,499.649182"/>