<?xml version="1.0" encoding="UTF-8"?>

<!-- generated on Wed Dec 16 10:11:00 2020 by SUMO duarouter Version 0.30.0
<?xml version="1.0" encoding="UTF-8"?>

<configuration xmlns:xsi="http://www.w3.org/2001/XMLSchema-instance" xsi:noNamespaceSchemaLocation="http://sumo.dlr.de/xsd/duarouterConfiguration.xsd">

    <input>
        <net-file value="/Users/rebeccakahn/Clemson%20University/Matthew%20W%20Franchi%20-%20Research/SUMO/Tests/CitadelArea/worlds/myMap_net/sumo.net.xml"/>
        <trip-files value="/Users/rebeccakahn/Clemson%20University/Matthew%20W%20Franchi%20-%20Research/SUMO/Tests/CitadelArea/worlds/myMap_net/sumo.trip.xml"/>
    </input>

    <output>
        <output-file value="/Users/rebeccakahn/Clemson%20University/Matthew%20W%20Franchi%20-%20Research/SUMO/Tests/CitadelArea/worlds/myMap_net/sumo.rou.xml"/>
    </output>

    <processing>
        <ignore-errors value="true"/>
    </processing>

</configuration>
-->

<routes xmlns:xsi="http://www.w3.org/2001/XMLSchema-instance" xsi:noNamespaceSchemaLocation="http://sumo.dlr.de/xsd/routes_file.xsd">
    <vehicle id="0" depart="0.00">
        <route edges="10827746_14 10827746_17 10827746_16 10827746_15 10827746_19 12151495_1 12151495_2 262473861_8 262473861_4 262473861_3 262473861_9 262473861_6 -10654194_5 -10654194_4 -10654194_7 -10654194_8 -10654194_10 -10654194_3 -10654194_9 -10654194_6 -10654194_2 10654194_2"/>
    </vehicle>
    <vehicle id="1" depart="1.00">
        <route edges="38725499_4 38725499_3 754233065_1 754233065_2 754233062_2 754233061_4 631693895_4 631693895_5 632285008_2 632285008_3 632285008_5 632285008_4 632285008_7 632285008_6 631693891_1"/>
    </vehicle>
    <vehicle id="2" depart="2.00">
        <route edges="39009332_7 -262473861_3 -262473861_4 -262473861_8 -262473861_1 38653476_1 38653476_8 38653476_7 38653476_6 11700345_2 467099524_10 467099524_5 467099524_6 38728331_1 38728331_2 38728331_3"/>
    </vehicle>
    <vehicle id="3" depart="3.00">
        <route edges="38725466_1 467099524_2 467099524_3 467099524_4 467099524_10 467099524_5 467099524_6 467099524_8 467099524_11 467099524_7 467099524_9 754203657_1 754203657_3 754203658 631676636_3 631676636_6 262473861_1 262473861_8 39007994_2 39007975_4 39007975_3 39009332_11 756845326_1 756845326_2 756845327_1"/>
    </vehicle>
    <vehicle id="4" depart="4.00">
        <route edges="296523234_1 296523233_2 38653487_2 38653487_3 631676634 631676632_1 631676632_3 467099524_1 467099524_2 467099524_3 467099524_4 11700345_4 11700345_3 38731494_2 38731494_3 38731494_4 631676624_1 631676624_2 10539142_1 10539142_2 10539142_3"/>
    </vehicle>
    <vehicle id="5" depart="5.00">
        <route edges="38730523_6 38730523_5 38730523_4 38730523_3 38730523_7 38730523_9 38730523_8 11038786_5 845364337_1 845364337_3 845364337_2 845364337_4 714070954_4 714070954_3 714070954_6 714070954_7 714070954_2 38728325_7 38728325_3 631676636_1 38725505_6 38725505_4 38725505_10 38725505_7 766894927_1 766894927_2 631676627 631676630_1 631676630_3 38725466_1 38725466_2 38653476_3 38653491_1 38653481_2 38653485_5 38653486_1 38653486_2 38653494_8 296523232_1 296523232_2 754162423_1 754162423_3 754162423_2"/>
    </vehicle>
    <vehicle id="6" depart="6.00">
        <route edges="753843391 753843390_2 -631676636_3 -631676636_4 -631676636_5 -631676636_2 -631676636_1 391527983_1 391527983_2 10539142_1 10539142_2 38731497_1 38731497_2 38938312_3 38731495_5 38731495_9"/>
    </vehicle>
    <vehicle id="7" depart="7.00">
        <route edges="632285008_6 38731495_1 38731495_2 38731495_4 845364339_5 845364339_4 631676618_1 631676618_5 631676618_6 631676618_3 631676618_2 467099524_11 467099524_7 467099524_9 756135932_1 756135932_10 756135932_4 756135932_5 756135932_3 756135932_6 756135932_7 -10827746_17 -10827746_14 -10827746_4 -10827746_6 -10827746_5 -10827746_10 -10827746_9 -10827746_2"/>
    </vehicle>
    <vehicle id="8" depart="8.00">
        <route edges="10654425_1 10654425_2 10654425_4 10654425_3 10654194_7 10654194_4 10654194_5 -262473861_6 -262473861_9 -262473861_3 -262473861_4 -262473861_8 -262473861_1 38653476_1 38653476_8 38653476_7 38653476_6 38653476_2 38653476_5 38653476_4 38653476_3 38653491_1 38653481_2 38653485_5 38653488_1 38653488_2 38653489_2"/>
    </vehicle>
    <vehicle id="9" depart="9.00">
        <route edges="845364338_3 844985679 844985680_1 844985680_4 844985680_3 844985680_2 845364337_1 845364337_3 845364337_2 845364337_4 714070954_4 714070954_3 714070954_6 714070954_7 714070954_2 38728325_7 38728325_3 38728325_4 38728325_6 38731498 38731494_3 38731501 38731495_2 38731495_4"/>
    </vehicle>
    <vehicle id="10" depart="10.00">
        <route edges="-262473861_1 -631676636_6 -631676636_3 -631676636_4 -631676636_5 -631676636_2 38725505_6 38725505_4 38725505_10 38725505_7 766894927_1 766894927_2 631676627 631676630_1 631676630_3 631676630_2 631693895_1 631693895_2 631693895_4 631693895_5 631693895_3 38728301_1 38728301_2 38728303 38728292_2"/>
    </vehicle>
    <vehicle id="11" depart="11.00">
        <route edges="10827746_4 10827746_14 38725505_9 38725505_5 38725505_8 38725505_3 38725505_6 38725505_4 631676618_6 631676618_3 631676618_2 631676618_4 631676623 -631676623"/>
    </vehicle>
    <vehicle id="12" depart="12.00">
        <route edges="10654135_3 10654135_4 10654135_5 10654135_6 10654258_6 39009332_15 39009332_14 39009332_13 39009332_4 39009332_7 -262473861_3 -262473861_4 -262473861_8 -262473861_1 -631676636_6 -631676636_3 -631676636_4 -631676636_5 -631676636_2 38725505_6 38725505_4 38725505_10 38725505_7 766894927_1 766894927_2 631676627 631676630_1 631676630_3 631676630_2 631693895_1 631693895_2 631693895_4 631693895_5 631693895_3 38728301_1 806340453_1"/>
    </vehicle>
    <vehicle id="14" depart="14.00">
        <route edges="38653485_5 38653488_1 38653488_2 38653489_2 296523232_4 753822246 753822247 10654135_5 10654135_6 10654258_6 10654258_7"/>
    </vehicle>
    <vehicle id="15" depart="15.00">
        <route edges="631693887_2 631693887_6 631693887_5 631693887_4 631693887_3 631693887_7 631693886 38728301_1 38728301_2 38728301_3 38728301_4 38728301_5 845364339_2 845364339_6 845364339_5 845364339_4 631676618_1 631676618_5 631676618_6 631676618_3 631676618_2 467099524_11 467099524_7 467099524_9 754203657_1 754203657_3 754203658 631676636_3 631676636_6 262473861_1 262473861_8 39007994_2 39007975_4 39007975_3 39009332_11 756845326_1"/>
    </vehicle>
    <vehicle id="16" depart="16.00">
        <route edges="-10827746_5 -10827746_10 -10827746_9 -10827746_2 10827746_2"/>
    </vehicle>
    <vehicle id="18" depart="18.00">
        <route edges="38728318_2 631676627 631676630_1 631676630_3 631676630_2 631693895_1 631693895_2 631693895_4 631693895_5 632285008_2 632285008_3 632285008_5 632285008_4 632285008_7 632285008_6 38731495_1 38731495_2 38731495_4 38731495_8 38731495_3 38731495_7 38731495_6 38731495_5 714070954_6 38731497_4 282349947"/>
    </vehicle>
    <vehicle id="19" depart="19.00">
        <route edges="38731503 631693891_2 631693891_5 38728301_5 845364339_2 845364339_6 845364339_5 845364339_4 631676618_1 631676618_5 38725505_10 38725505_7 766894927_1 766894927_2 631676627 631676630_1 631676630_3 38725466_1 38725466_2 38653476_3 38653491_1 38653481_2 38653485_5 38653486_1 296523234_1 296523234_2 296523234_3 296523234_6 806781405_1 806781405_2 806781404_2 38653494_2 38653494_9 296523231_1 296523231_2"/>
    </vehicle>
    <vehicle id="20" depart="20.00">
        <route edges="38653494_5 38653494_8 296523232_1 296523232_2 296523232_3 296523232_4 753822246 753822247 10654135_5 10654135_6 10654258_6 39009332_15 39009332_14 39009332_13 39009332_4 39009332_7 -262473861_3 -262473861_4 -262473861_8 -262473861_1 -631676636_6 -631676636_3 -631676636_4 -631676636_5 -631676636_2 -631676636_1 391527983_1 391527983_2 10539142_1 10539142_2 10539142_3 10539142_5 10539142_7 38731502_1 38731502_2 845364339_6 38731495_8"/>
    </vehicle>
    <vehicle id="21" depart="21.00">
        <route edges="296523234_4 296523227_5 296523227_6 296523228_1 296523228_2 631676622 467099524_1 467099524_2 467099524_3 467099524_4 467099524_10 467099524_5 467099524_6 467099524_8 467099524_11 467099524_7 467099524_9 754203657_1 754203657_3 754203658 631676636_3 631676636_6 262473861_1 262473861_8 39007994_2 39007975_4 39007989_2 10827746_18 10827746_21 10827746_8 10827746_13 39007927_1 39007927_2 39007927_3"/>
    </vehicle>
    <vehicle id="22" depart="22.00">
        <route edges="714070951_3 4395955_14 4395955_5 4395955_10 11038786_4 11038786_5 845364337_1 845364337_3 845364337_2 845364337_4 714070954_4 714070954_3 714070954_6 714070954_7 714070954_2 38728325_7 38728325_3 631676636_1 38725505_6 38725505_4 631676618_6 631676618_3 631676618_2 631676618_4 631676623 38653061_9 38653061_1 38653061_8 10654258_1 10654258_2 10654135_7"/>
    </vehicle>
    <vehicle id="24" depart="24.00">
        <route edges="38731500 38731495_3 10539142_5 10539142_7 38731502_1 38731502_2 845364339_6 845364339_5 845364339_4 631676618_1 631676618_5 38725505_10 38725505_7 766894927_1 766894927_2 631676627 631676630_1 631676630_3 38725466_1 38725466_2 38653476_3 38653491_1 38653481_2 38653485_5 38653486_1 38653486_2 38653494_8 296523232_1 296523232_2 754162423_1 754162423_3"/>
    </vehicle>
    <vehicle id="25" depart="25.00">
        <route edges="39007994_1 39007994_2 39007994_3 -10827746_12 -10827746_3 -10827746_19 -10827746_15 -10827746_16 756135932_11 756135932_13 756135932_2 756135932_12 756135932_9 755778342 -631706773_1 78389221"/>
    </vehicle>
    <vehicle id="26" depart="26.00">
        <route edges="38728292_1 38728292_2 38728286_2 38728286_3 38728301_4 38728301_5 845364339_2 845364339_6 845364339_5 845364339_4 631676618_1 631676618_5 38725505_10 38725505_7 766894927_1 766894927_2 631676627 631676630_1 631676630_3 38725466_1 38725466_2 38653476_3 38653491_1 38653491_2"/>
    </vehicle>
    <vehicle id="27" depart="27.00">
        <route edges="10654194_8 10654194_7 10654194_4 10654194_5 -262473861_6 -262473861_9 -262473861_3 -262473861_4 -262473861_8 -262473861_1 -631676636_6 -631676636_3 -631676636_4 -631676636_5 -631676636_2 -631676636_1 391527983_1 391527983_2 10539142_1 10539142_2 10539142_3 10539142_5 10539142_7 10539142_4 119972476_4 119972476_2 845364338_1 189145647 299399465_1"/>
    </vehicle>
    <vehicle id="28" depart="28.00">
        <route edges="39007994_2 39007994_3 -10827746_12 -10827746_3 12151495_1 12151495_2 -262473861_1 -631676636_6 -631676636_3 -631676636_4 -631676636_5 -631676636_2 -631676636_1 391527983_1 391527983_2 10539142_1 10539142_2 10539142_3 10539142_5 10539142_7 10539142_4 119972476_4 119972476_2 845364338_1 845364338_2 845364338_3 844985679 844985680_1 844985680_4 844985680_3 844985680_2 845364337_1 845364337_3 845364337_2 845364337_4 714070954_4 119972476_1 38938315"/>
    </vehicle>
    <vehicle id="29" depart="29.00">
        <route edges="38728349 756135932_3 756135932_6 38728363 38725505_5 38725505_8 38725505_3 38725505_6 38725505_4 631676618_6 631676618_3"/>
    </vehicle>
    <vehicle id="31" depart="31.00">
        <route edges="-631676636_5 631676636_5 631676636_4 631676636_3 631676636_6 262473861_1 262473861_8 262473861_4 262473861_3 262473861_9 262473861_6 -10654194_5 -10654194_4 -10654194_7 -10654194_8 -10654194_10 10654258_5"/>
    </vehicle>
    <vehicle id="32" depart="32.00">
        <route edges="806781404_1 806781404_2 38653494_2 38653494_9 38653494_3 38653494_7 38653494_10 38653494_6 38653494_4 38653494_5 38653494_8 296523232_1 296523232_2 754162423_1"/>
    </vehicle>
    <vehicle id="38" depart="38.00">
        <route edges="4395955_14 4395955_5 4395955_10 11038786_4 11038786_5 845364337_1 845364337_3 845364337_2 845364337_4 714070954_4 714070954_3 714070954_6 714070954_7 714070954_2 38728325_7 38728325_3 631676636_1 38725505_6 38725505_4 38725505_10 38725505_7 766894927_1 766894927_2 631676627 631676630_1 631676630_3 38725466_1 38725466_2 38653476_3 38653491_1 38653481_2 38653485_5 38653486_1 296523234_1 296523234_2 296523234_3 296523234_6 296523234_5 296523234_4 296523227_5"/>
    </vehicle>
    <vehicle id="39" depart="39.00">
        <route edges="38938314_1 38938314_2 10539142_7 38731502_1 38731502_2 845364339_6 845364339_5 845364339_4 631676618_1 631676618_5 631676618_6 631676618_3 631676618_2 467099524_11 467099524_7 467099524_9 754203657_1 754203657_3"/>
    </vehicle>
    <vehicle id="40" depart="40.00">
        <route edges="38728301_2 38728301_3 38728301_4 38728301_5 845364339_2 845364339_6 845364339_5 845364339_4 631676618_1 631676618_5 631676618_6"/>
    </vehicle>
    <vehicle id="41" depart="41.00">
        <route edges="38730528_1 38730523_6 38730523_5 38730523_4 38730523_3 38730523_7 38730523_9 38730523_8 11038786_5 845364337_1 845364337_3 845364337_2 845364337_4 714070954_4 714070954_3 714070954_6 714070954_7 714070954_2 38728325_7 38728325_3 631676636_1 631676636_2 631676636_5 756135932_10 756135932_4 756135932_5 756135932_3 756135932_6 756135932_7 756135932_11 756135932_13 11494008"/>
    </vehicle>
    <vehicle id="42" depart="42.00">
        <route edges="467099524_5 467099524_6 467099524_8 467099524_11 467099524_7 467099524_9 754203657_1 754203657_3 754203658 631676636_3 631676636_6 262473861_1 262473861_8 39007994_2 39007975_4 39007989_2 10827746_18 10827746_21 10827746_8 10827746_13"/>
    </vehicle>
    <vehicle id="43" depart="43.00">
        <route edges="753243904_2 38728314_3 631693886 38728301_1 38728301_2 38728301_3 38728301_4 38728301_5 845364339_2 845364339_6 845364339_5 845364339_4 631676618_1 631676618_5 38725505_10 38725505_7 766894927_1 766894927_2 631676627 631676630_1 631676630_3 38725466_1 38725466_2 38653476_3 38653491_1 38653481_2 38653485_5 38653486_1 296523234_1 296523234_2 296523234_3 296523234_6 806781405_1 806781405_2 806781404_2 38653494_2 38653494_9"/>
    </vehicle>
    <vehicle id="44" depart="44.00">
        <route edges="38728314_2 38728314_3 631693886 38728301_1 38728301_2 38728301_3 38728301_4 38728301_5 845364339_2 845364339_6 845364339_5 845364339_4 631676618_1 631676618_5 631676618_6 631676618_3 631676618_2 467099524_11 467099524_7 467099524_9 754203657_1 754203657_3 754203658 631676636_3 631676636_6 38728345_1 38728345_5 38728345_2 38728345_4 38728345_3 10827746_15 39008026_1 39008030_1 39008002_1 39008003"/>
    </vehicle>
    <vehicle id="45" depart="45.00">
        <route edges="631693888 632285008_1 632285008_2 632285008_3 632285008_5 632285008_4 632285008_7 632285008_6 38731495_1 38731495_2 38731495_4 845364339_5 845364339_4 631676618_1 631676618_5 631676618_6 631676618_3 631676618_2 467099524_11 467099524_7 467099524_9 756135932_1 756135932_10 756135932_4 756135932_5 756135932_3 756135932_6 756135932_7 -10827746_17 -10827746_14 -10827746_4 -10827746_6 38938267_1 38938267_2"/>
    </vehicle>
    <vehicle id="46" depart="46.00">
        <route edges="38766025 78418291 38108308 38766007 78419889_1 78419889_2 714070954_3 714070954_6 714070954_7 714070954_2 38728325_7 38728325_3 631676636_1 631676636_2 631676636_5 631676636_4 631676636_3 631676636_6 262473861_1 262473861_8 39007994_2 39007975_4 39007989_2 10827746_18 10827746_21 10827746_8 10827746_13 10827746_7"/>
    </vehicle>
    <vehicle id="49" depart="49.00">
        <route edges="631676631_2 754233066 754233065_2 754233062_2 754233061_4 631693895_4 631693895_5 632285008_2 632285008_3 756853584 631676625 631676629 631676627 631676630_1 631676630_3 38725466_1 38725466_2 38653476_3 38653491_1 38653481_2 38653485_5 38653488_1 38653488_2 38653489_2 296523232_4 753822246 753822247 10654135_5 10654135_6 10654258_6 10654258_7 -10654194_3 -10654194_9 -10654194_6 -10654194_2 -10654194_1 39009338_1 39009332_8 39009332_9 39009332_2"/>
    </vehicle>
    <vehicle id="50" depart="50.00">
        <route edges="754233066 754233065_2 754233062_2 754233061_4 631693895_4 631693895_5 632285008_2 632285008_3 632285008_5 632285008_4 632285008_7 632285008_6 631693891_1 631693891_2 631693891_5 631693891_6 631693891_3 631693891_4 844985679 844985680_1 844985680_4 844985680_3 844985680_2 845364337_1 845364337_3 714070952 714070953_1 714070953_6 714070953_5 714070953_7 714070953_3 38730528_1 38730528_2"/>
    </vehicle>
    <vehicle id="52" depart="52.00">
        <route edges="38731498 38731494_3 38731494_4 631676618_1 631676618_5 38725505_10 38725505_7 766894927_1 766894927_2 631676627 631676630_1"/>
    </vehicle>
    <vehicle id="53" depart="53.00">
        <route edges="38653491_1 38653491_2 631676635 631676632_1 631676632_3 631676632_2 631693895_1 631693895_2 631693895_4 631693895_5 632285008_2 632285008_3 632285008_5 632285008_4 632285008_7 632285008_6 631693891_1 631693891_2 631693891_5 631693891_6 631693891_3 631693891_4 844985679 844985680_1 844985680_4 844985680_3 844985680_2 845364337_1 845364337_3 845364337_2 845364337_4 78419600_1"/>
    </vehicle>
    <vehicle id="54" depart="54.00">
        <route edges="10654636_2 10654194_6 10654194_9 10664342_2 39009332_10 39009332_15 39009332_14 39009332_13 39009332_4 39009332_7 -262473861_3 -262473861_4 39007994_2 39007994_3 -10827746_12 -10827746_3 -10827746_19 -10827746_15 -10827746_16 -10827746_17 -10827746_14 769593006"/>
    </vehicle>
    <vehicle id="55" depart="55.00">
        <route edges="10654135_5 10654135_6 10654258_6 39009332_15 39009332_14 39009332_13 39009332_4 39009332_7 -262473861_3 -262473861_4 -262473861_8 -262473861_1 38653476_1 38653476_8 38653476_7 38653476_6 38653476_2 38653476_5 38653476_4 38653476_3 38653491_1 38653491_2 631676633 38653487_4 296523227_6 296523228_1 296523228_2 296523228_3 38725499_4 296523227_1 296523227_2 38725499_1 38725499_2"/>
    </vehicle>
    <vehicle id="56" depart="56.00">
        <route edges="10827746_15 10827746_19 12151495_1 12151495_2 262473861_8 262473861_4 262473861_3 262473861_9"/>
    </vehicle>
    <vehicle id="57" depart="57.00">
        <route edges="10654425_3 10654194_7 10654194_4 10654194_5 -262473861_6 -262473861_9 -262473861_3 -262473861_4 -262473861_8 -262473861_1 -631676636_6 -631676636_3 -631676636_4 -631676636_5 -631676636_2 38725505_6 38725505_4 38725505_10 38725505_7 766894927_1 766894927_2 631676627"/>
    </vehicle>
    <vehicle id="58" depart="58.00">
        <route edges="38731495_2 38731495_4 845364339_5 845364339_4 631676618_1 631676618_5 631676618_6 631676618_3 631676618_2 467099524_11 467099524_7 467099524_9 754203657_1 754203657_3 754203658 631676636_3 631676636_6 262473861_1 262473861_8 39007994_2 39007975_4 39007989_2 -10827746_11"/>
    </vehicle>
    <vehicle id="59" depart="59.00">
        <route edges="39008030_2 756135932_13 11494008 38725505_2 10827746_17 10827746_16 10827746_15 10827746_19 12151495_1 39007975_2 39007975_4 39007989_2"/>
    </vehicle>
    <vehicle id="60" depart="60.00">
        <route edges="38728363 38725505_5 38725505_8 38725505_3 38725505_6 38725505_4 38725505_10 38725505_7 766894926 38731498 38731494_3 38731494_4 631676618_1"/>
    </vehicle>
    <vehicle id="61" depart="61.00">
        <route edges="845364338_1 189145647 299399465_1 299399465_2 38728286_3 38728301_4 38728301_5 845364339_2 845364339_6 845364339_5 845364339_4 631676618_1 631676618_5 631676618_6 631676618_3 631676618_2 467099524_11 467099524_7 467099524_9 754203657_1 754203657_3 754203658 631676636_3 631676636_6 38728345_1"/>
    </vehicle>
    <vehicle id="62" depart="62.00">
        <route edges="10654425_1 10654425_2 10654425_4 10654425_3 10654194_7 10654194_4 10654194_5 -262473861_6 -262473861_9 -262473861_3 -262473861_4 -262473861_8 -262473861_1 38653476_1 38653476_8 38653476_7 38653476_6 38653476_2 38653476_5 38653476_4 38653476_3 38653491_1 38653481_2 38653485_5 38653486_1 296523234_1 296523234_2 296523234_3 296523234_6 806781405_1 806781405_2"/>
    </vehicle>
    <vehicle id="65" depart="65.00">
        <route edges="11700345_1 38653476_2 38653476_5 38653476_4 38653476_3 38653491_1 38653481_2 38653485_5 38653488_1 38653488_2 38653489_2 296523232_4 753822246 753822247 10654135_5 10654135_6 10654258_6 10654258_7 10654258_5 39009334_4 10664342_1"/>
    </vehicle>
    <vehicle id="66" depart="66.00">
        <route edges="714070951_2 38730523_9 38730523_8 11038786_5 845364337_1 845364337_3 845364337_2 845364337_4 714070954_4 714070954_3 714070954_6 714070954_7 714070954_2 38728325_7 38728325_3 631676636_1 631676636_2 631676636_5 631676636_4 631676636_3 631676636_6 262473861_1 262473861_8 262473861_4 262473861_3 -262473861_3"/>
    </vehicle>
    <vehicle id="67" depart="67.00">
        <route edges="632285008_3 632285008_5 632285008_4"/>
    </vehicle>
    <vehicle id="68" depart="68.00">
        <route edges="631676618_2 631676618_4 38653476_7 38653476_6 38653476_2 38653476_5 38728315_1"/>
    </vehicle>
    <vehicle id="69" depart="69.00">
        <route edges="754162420_3 296523230_2 38653494_9 296523231_1 296523231_2 296523231_3 631676634 631676632_1 631676632_3 467099524_1 467099524_2 467099524_3 467099524_4 467099524_10 467099524_5 467099524_6 467099524_8 467099524_11 467099524_7 467099524_9 756135932_1 756135932_10 756135932_4 38728360_1 38728360_2 38725505_8 38725505_3"/>
    </vehicle>
    <vehicle id="70" depart="70.00">
        <route edges="714070954_6 714070954_7 714070954_2 38728325_7 38728325_3 631676636_1 38725505_6 38725505_4 38725505_10 38725505_7 766894927_1 766894927_2 631676627 631676630_1 631676630_3 631676630_2 631693895_1 631693895_2 631693895_4 631693895_5 632285008_2 632285008_3 632285008_5 632285008_4 632285008_7 632285008_6 631693891_1 631693891_2"/>
    </vehicle>
    <vehicle id="72" depart="72.00">
        <route edges="39007975_3 39009332_11 756845326_1 756845326_2 756845326_3 631676639_2"/>
    </vehicle>
    <vehicle id="75" depart="75.00">
        <route edges="296523227_6 296523228_1 296523228_2 631676622 467099524_1 467099524_2 467099524_3 467099524_4 467099524_10 467099524_5 467099524_6 467099524_8 467099524_11 467099524_7 467099524_9 754203657_1 754203657_3 754203658 631676636_3 631676636_6 262473861_1 262473861_8 262473861_4 262473861_3"/>
    </vehicle>
    <vehicle id="77" depart="77.00">
        <route edges="-631676623 631676623 38653061_9 38653061_1 39007994_1 -262473861_8 -262473861_1 38728345_1 38728351 756135932_4"/>
    </vehicle>
    <vehicle id="78" depart="78.00">
        <route edges="806781404_1 806781404_2 38653494_2 38653494_9 296523231_1 296523231_2 296523231_3 631676634 631676632_1 631676632_3 467099524_1 467099524_2 467099524_3 467099524_4 467099524_10 467099524_5 467099524_6 467099524_8 467099524_11 467099524_7 467099524_9 756135932_1 756135932_10 756135932_4 756135932_5 756135932_3 756135932_6 756135932_7 756135932_11 756135932_13 756135932_2"/>
    </vehicle>
    <vehicle id="79" depart="79.00">
        <route edges="38731495_7 38731495_6 38938314_1 38938314_2 10539142_7 38731502_1 38731502_2 845364339_6 845364339_5 845364339_4 631676618_1 631676618_5 38725505_10 38725505_7 766894927_1 766894927_2 631676627 631676630_1 631676630_3 38725466_1 38725466_2 38653476_3 38653491_1 38653491_2 631676633"/>
    </vehicle>
    <vehicle id="80" depart="80.00">
        <route edges="296523229 296523228_2 631676622 467099524_1 467099524_2 467099524_3 467099524_4 467099524_10 467099524_5 467099524_6 467099524_8 467099524_11 467099524_7 467099524_9 756135932_1 756135932_10 756135932_4 756135932_5 756135932_3 756135932_6 756135932_7 -10827746_17 -10827746_14 -10827746_4 -10827746_6 -10827746_5 -10827746_10 -10827746_9 282349949"/>
    </vehicle>
    <vehicle id="81" depart="81.00">
        <route edges="38653494_1 38653494_2 38653494_9 296523231_1 296523231_2 296523231_3 631676634 631676632_1 631676632_3 467099524_1 38725466_2 38653482 38653483 38653061_5 38653061_3 38653061_4 38653061_9 38653061_1 38653061_8 38653061_2"/>
    </vehicle>
    <vehicle id="82" depart="82.00">
        <route edges="38731516_6 631693894 38731520_2 631693888 632285008_1 632285008_2 632285008_3 632285008_5 632285008_4 632285008_7 632285008_6 38731495_1 38731495_2 38731495_4 845364339_5 845364339_4 631676618_1 631676618_5 631676618_6 631676618_3 631676618_2 467099524_11 467099524_7 467099524_9 756135932_1 756135932_10 756135932_4 756135932_5 756135932_3 756135932_6 756135932_7 756135932_11 756135932_13 756135932_2 756135932_12 756135932_9 755778342 -631706773_1 -10992480_3 10992480_3"/>
    </vehicle>
    <vehicle id="83" depart="83.00">
        <route edges="753841108 631693887_5 631693887_4 631693887_3 631693887_7 631693886 38728301_1 38728301_2 38728301_3 38728301_4 38728301_5 845364339_2 845364339_6 845364339_5 845364339_4 631676618_1 631676618_5 631676618_6 631676618_3 631676618_2 467099524_11 467099524_7 467099524_9 756135932_1 756135932_10 756135932_4 756135932_5 756135932_3 756135932_6 756135932_7 -10827746_17 -10827746_14 -10827746_4 -10827746_6 -10827746_5"/>
    </vehicle>
    <vehicle id="84" depart="84.00">
        <route edges="10654135_1 10654135_2 10654135_3 10654135_4 10654135_5 10654135_6 10654258_6 39009332_15 39009332_14 39009332_13 39009332_4 39009332_7 -262473861_3 -262473861_4 -262473861_8 -262473861_1 -631676636_6 -631676636_3 -631676636_4 -631676636_5 -631676636_2 38725505_6 38725505_4 38725505_10 38725505_7 766894927_1 766894927_2 631676627 631676630_1 631676630_3 631676630_2 631693895_1 754233062_1"/>
    </vehicle>
    <vehicle id="85" depart="85.00">
        <route edges="10539142_7 38731502_1 38731502_2 845364339_6 845364339_5 845364339_4 631676624_1 38731500"/>
    </vehicle>
    <vehicle id="88" depart="88.00">
        <route edges="38653061_2 38653061_7 38653061_6 38653061_5 38653462 11700345_1 11700345_2 467099524_10 467099524_5 467099524_6 467099524_8 467099524_11 467099524_7 467099524_9 756135932_1 756135932_10 756135932_4 756135932_5 756135932_3 756135932_6 756135932_7 -10827746_17 -10827746_14 -10827746_4 -10827746_6 38938267_1 38938267_2 38938271_2"/>
    </vehicle>
    <vehicle id="89" depart="89.00">
        <route edges="754233062_2 754233061_4 631693895_4 631693895_5 632285008_2 632285008_3 756853584 631676625 631676629 631676627 631676630_1 631676630_3 38725466_1 38725466_2 38653476_3 38653491_1 38653481_2 38653485_5 38653488_1 38653488_2 38653489_2 296523232_4 753822246 753822247 10654135_5 10654135_6 10654258_6 10654258_7 10654258_5 39009334_4 39009334_3 39009334_5"/>
    </vehicle>
    <vehicle id="90" depart="90.00">
        <route edges="844985680_3 844985680_2 845364337_1 845364337_3 845364337_2 845364337_4 714070954_4 714070954_3 714070954_6 714070954_7 714070954_2 38728325_7 38728325_3 631676636_1 631676636_2 631676636_5 631676636_4 631676636_3 631676636_6 262473861_1 262473861_8 39007994_2 39007975_4 39007989_2 10827746_18 10827746_21 10827746_8"/>
    </vehicle>
    <vehicle id="91" depart="91.00">
        <route edges="753843389 753843390_1 753843390_2 631676636_6 38653476_1 38653476_8 38653476_7 38653476_6 38653476_2 38653476_5 38653476_4 38653476_3 38653491_1 38653491_2 631676633"/>
    </vehicle>
    <vehicle id="92" depart="92.00">
        <route edges="38728301_2 38728301_3 38728301_4 38728301_5 845364339_2 845364339_6 845364339_5 845364339_4 631676618_1 631676618_5 631676618_6 631676618_3 631676618_2 467099524_11 467099524_7 467099524_9 756135932_1 756135932_10 756135932_4 756135932_5 756135932_3 756135932_6 756135932_7 -10827746_17 -10827746_14 -10827746_4 10827746_4"/>
    </vehicle>
    <vehicle id="93" depart="93.00">
        <route edges="10827746_5 10827746_6 10827746_4 10827746_14 38725505_9 38725505_5 38725505_8 38725505_3 38725505_6 38725505_4 38725505_10 38725505_7 766894927_1 766894927_2 631676627 631676630_1 631676630_3 38725466_1 38725466_2 38653476_3 38653491_1 38653481_2 38653485_5 38653486_1 296523234_1 296523234_2 296523234_3 296523234_6 806781405_1 806781405_2 806781404_2 38653494_2 38653494_9 38653494_3 38653494_7 38653494_10 38653494_6 38653494_4"/>
    </vehicle>
    <vehicle id="96" depart="96.00">
        <route edges="754162423_3 754162424 296523232_2 296523232_3 296523232_4 753822246 753822247 10654135_5 10654135_6 10654258_6 39009332_15 39009332_14 39009332_13 39009332_4 39009332_7 -262473861_3 -262473861_4 -262473861_8 -262473861_1 -631676636_6 -631676636_3 -631676636_4 -631676636_5 -631676636_2 -631676636_1 391527983_1 391527983_2 10539142_1 10539142_2 10539142_3 10539142_5 10539142_7 10539142_4 119972476_4 38730518 845364339_2"/>
    </vehicle>
    <vehicle id="100" depart="100.00">
        <route edges="38653061_3 38653061_4 38653061_9 38653061_1 38653061_8 10654258_1 10654258_2 10654258_6 10654258_7 10654258_5 10654258_4"/>
    </vehicle>
    <vehicle id="101" depart="101.00">
        <route edges="39009334_2 39009334_4 10664342_1 10664342_2 39009332_10 39009332_15 39009332_14 39009332_13 39009332_4 39009332_7 -262473861_3 -262473861_4 -262473861_8 -262473861_1 -631676636_6 -631676636_3 -631676636_4 -631676636_5 -631676636_2 -631676636_1 391527983_1 391527983_2 10539142_1 10539142_2 10539142_3 10539142_5 10539142_7 10539142_4 119972476_4 119972476_2 845364339_1 78413525"/>
    </vehicle>
    <vehicle id="102" depart="102.00">
        <route edges="754233061_1 754233067_1 754233067_2 631693895_5 632285008_2 632285008_3 632285008_5 632285008_4 632285008_7 632285008_6 38731495_1 38731495_2 38731495_4 845364339_5 845364339_4 631676618_1 631676618_5 631676618_6 631676618_3 631676618_2 467099524_11 467099524_7 467099524_9 756135932_1 -631676636_5 38728361_1"/>
    </vehicle>
    <vehicle id="103" depart="103.00">
        <route edges="10654194_8 10654194_7 10654194_4 10654194_5 -262473861_6 -262473861_9 -262473861_3 -262473861_4 -262473861_8 -262473861_1 -631676636_6 -631676636_3 -631676636_4 -631676636_5 -631676636_2 38725505_6 38725505_4 631676618_6 631676618_3 631676618_2 467099524_11 467099524_7"/>
    </vehicle>
    <vehicle id="105" depart="105.00">