<?xml version="1.0" encoding="UTF-8"?>

<!-- generated on Sun Dec 27 15:36:27 2020 by Eclipse SUMO netedit Version 1.8.0
<configuration xmlns:xsi="http://www.w3.org/2001/XMLSchema-instance" xsi:noNamespaceSchemaLocation="http://sumo.dlr.de/xsd/netconvertConfiguration.xsd">

    <input>
        <sumo-net-file value="/Users/rebeccakahn/Clemson%20University/Matthew%20W%20Franchi%20-%20Research/SUMO/Tests/CitadelArea/worlds/myMap_net/sumo.net.xml"/>
    </input>

    <output>
        <output-file value="/Users/rebeccakahn/Clemson%20University/Matthew%20W%20Franchi%20-%20Research/SUMO/Tests/CitadelArea/worlds/myMap_net/sumo.net.xml"/>
    </output>

    <processing>
        <geometry.min-radius.fix.railways value="false"/>
        <geometry.max-grade.fix value="false"/>
        <offset.disable-normalization value="true"/>
        <lefthand value="false"/>
    </processing>

    <junctions>
        <no-turnarounds value="true"/>
        <junctions.corner-detail value="0"/>
        <junctions.limit-turn-speed value="-1"/>
        <rectangular-lane-cut value="false"/>
    </junctions>

    <pedestrian>
        <walkingareas value="false"/>
    </pedestrian>

    <report>
        <aggregate-warnings value="5"/>
    </report>

</configuration>
-->

<net version="1.6" xmlns:xsi="http://www.w3.org/2001/XMLSchema-instance" xsi:noNamespaceSchemaLocation="http://sumo.dlr.de/xsd/net_file.xsd">

    <location netOffset="1688.39,915.97" convBoundary="0.00,0.00,3225.37,2466.55" origBoundary="-1688.39,-915.97,1536.98,1550.58" projParameter="!"/>

    <edge id=":100636147_0" function="internal">
        <lane id=":100636147_0_0" index="0" speed="13.90" length="7.99" width="3.50" shape="1826.06,1586.92 1833.38,1589.90"/>
        <lane id=":100636147_0_1" index="1" speed="13.90" length="7.99" width="3.50" shape="1824.66,1590.13 1832.13,1593.17"/>
    </edge>
    <edge id=":100636147_2" function="internal">
        <lane id=":100636147_2_0" index="0" speed="13.90" length="5.35" width="3.50" shape="1827.29,1593.71 1827.95,1592.92 1828.98,1592.57 1830.38,1592.65 1832.13,1593.17"/>
    </edge>
    <edge id=":102452707_0" function="internal">
        <lane id=":102452707_0_0" index="0" speed="13.90" length="6.70" width="4.00" shape="1305.80,1791.45 1305.01,1793.07 1304.88,1794.61 1305.39,1796.07 1306.56,1797.45"/>
    </edge>
    <edge id=":102452707_1" function="internal">
        <lane id=":102452707_1_0" index="0" speed="13.90" length="8.00" width="4.00" shape="1305.80,1791.45 1301.40,1798.13"/>
    </edge>
    <edge id=":102452710_0" function="internal">
        <lane id=":102452710_0_0" index="0" speed="13.90" length="6.06" width="4.00" shape="1408.70,1889.24 1410.12,1890.19 1411.43,1890.38 1412.61,1889.80 1413.67,1888.45"/>
    </edge>
    <edge id=":102452710_1" function="internal">
        <lane id=":102452710_1_0" index="0" speed="13.90" length="7.99" width="4.00" shape="1409.77,1895.43 1413.67,1888.45"/>
    </edge>
    <edge id=":103236846_0" function="internal">
        <lane id=":103236846_0_0" index="0" speed="13.90" length="6.12" width="4.00" shape="2307.51,999.83 2306.85,1001.42 2306.91,1002.76 2307.70,1003.84 2309.21,1004.68"/>
    </edge>
    <edge id=":103236846_1" function="internal">
        <lane id=":103236846_1_0" index="0" speed="13.90" length="7.99" width="4.00" shape="2307.51,999.83 2306.30,1001.88 2305.51,1003.29 2304.78,1004.74 2303.76,1006.88"/>
    </edge>
    <edge id=":103236846_2" function="internal">
        <lane id=":103236846_2_0" index="0" speed="13.90" length="8.00" width="4.00" shape="2301.74,1001.82 2309.21,1004.68"/>
    </edge>
    <edge id=":103236846_3" function="internal">
        <lane id=":103236846_3_0" index="0" speed="13.90" length="2.06" width="4.00" shape="2301.74,1001.82 2303.26,1002.68 2303.45,1002.93"/>
    </edge>
    <edge id=":103236846_4" function="internal">
        <lane id=":103236846_4_0" index="0" speed="13.90" length="4.26" width="4.00" shape="2303.45,1002.93 2304.11,1003.81 2304.27,1005.21 2303.76,1006.88"/>
    </edge>
    <edge id=":103236847_0" function="internal">
        <lane id=":103236847_0_0" index="0" speed="13.90" length="6.46" width="4.00" shape="2030.60,895.14 2032.22,895.84 2033.68,895.86 2034.98,895.20 2036.12,893.85"/>
    </edge>
    <edge id=":103236847_1" function="internal">
        <lane id=":103236847_1_0" index="0" speed="13.90" length="7.98" width="4.00" shape="2030.60,895.14 2032.62,896.37 2034.04,897.16 2035.52,897.82 2037.72,898.70"/>
    </edge>
    <edge id=":103236847_2" function="internal">
        <lane id=":103236847_2_0" index="0" speed="13.90" length="8.00" width="4.00" shape="2031.87,900.63 2036.12,893.85"/>
    </edge>
    <edge id=":103236847_3" function="internal">
        <lane id=":103236847_3_0" index="0" speed="13.90" length="2.20" width="4.00" shape="2031.87,900.63 2033.04,899.24 2033.37,899.05"/>
    </edge>
    <edge id=":103236847_4" function="internal">
        <lane id=":103236847_4_0" index="0" speed="13.90" length="4.58" width="4.00" shape="2033.37,899.05 2034.40,898.45 2035.96,898.27 2037.72,898.70"/>
    </edge>
    <edge id=":103236850_0" function="internal">
        <lane id=":103236850_0_0" index="0" speed="13.90" length="6.57" width="4.00" shape="1734.25,1095.95 1733.53,1097.59 1733.48,1099.09 1734.11,1100.45 1735.40,1101.68"/>
    </edge>
    <edge id=":103236850_1" function="internal">
        <lane id=":103236850_1_0" index="0" speed="13.90" length="8.00" width="4.00" shape="1734.25,1095.95 1730.08,1102.78"/>
    </edge>
    <edge id=":103236850_2" function="internal">
        <lane id=":103236850_2_0" index="0" speed="13.90" length="8.00" width="4.00" shape="1728.75,1097.24 1735.40,1101.68"/>
    </edge>
    <edge id=":103236850_3" function="internal">
        <lane id=":103236850_3_0" index="0" speed="13.90" length="2.09" width="4.00" shape="1728.75,1097.24 1730.10,1098.38 1730.25,1098.67"/>
    </edge>
    <edge id=":103236850_4" function="internal">
        <lane id=":103236850_4_0" index="0" speed="13.90" length="4.38" width="4.00" shape="1730.25,1098.67 1730.78,1099.68 1730.77,1101.15 1730.08,1102.78"/>
    </edge>
    <edge id=":103236853_0" function="internal">
        <lane id=":103236853_0_0" index="0" speed="13.90" length="8.29" width="4.00" shape="1588.70,1020.61 1586.24,1021.04 1584.40,1021.20 1582.85,1021.78 1581.31,1023.47"/>
    </edge>
    <edge id=":103236853_1" function="internal">
        <lane id=":103236853_1_0" index="0" speed="13.90" length="8.16" width="4.00" shape="1585.50,1016.46 1581.31,1023.47"/>
    </edge>
    <edge id=":105015362_0" function="internal">
        <lane id=":105015362_0_0" index="0" speed="13.90" length="11.00" width="3.50" shape="2571.73,1883.02 2566.28,1892.53"/>
        <lane id=":105015362_0_1" index="1" speed="13.90" length="11.00" width="3.50" shape="2568.72,1881.24 2563.23,1890.82"/>
    </edge>
    <edge id=":105015362_2" function="internal">
        <lane id=":105015362_2_0" index="0" speed="13.90" length="3.74" width="3.50" shape="2562.29,1881.41 2565.55,1883.24"/>
    </edge>
    <edge id=":105015362_3" function="internal">
        <lane id=":105015362_3_0" index="0" speed="13.90" length="3.32" width="3.50" shape="2561.02,1884.67 2562.90,1885.73 2563.58,1886.67"/>
    </edge>
    <edge id=":105015362_4" function="internal">
        <lane id=":105015362_4_0" index="0" speed="13.90" length="10.22" width="3.50" shape="2565.55,1883.24 2565.69,1883.33 2567.49,1885.82 2567.69,1888.89 2566.28,1892.53"/>
    </edge>
    <edge id=":105015362_5" function="internal">
        <lane id=":105015362_5_0" index="0" speed="13.90" length="4.40" width="3.50" shape="2563.58,1886.67 2563.90,1887.11 2564.01,1888.80 2563.23,1890.82"/>
    </edge>
    <edge id=":105015830_0" function="internal">
        <lane id=":105015830_0_0" index="0" speed="13.90" length="9.05" width="3.50" shape="2447.49,1836.72 2449.86,1837.32 2451.92,1837.07 2453.69,1835.97 2455.15,1834.02"/>
    </edge>
    <edge id=":105015830_1" function="internal">
        <lane id=":105015830_1_0" index="0" speed="13.90" length="14.01" width="3.50" shape="2447.49,1836.72 2460.47,1841.89"/>
        <lane id=":105015830_1_1" index="1" speed="13.90" length="14.01" width="3.50" shape="2446.16,1839.96 2459.20,1845.16"/>
    </edge>
    <edge id=":105015830_3" function="internal">
        <lane id=":105015830_3_0" index="0" speed="13.90" length="14.00" width="3.50" shape="2448.24,1846.13 2455.15,1834.02"/>
        <lane id=":105015830_3_1" index="1" speed="13.90" length="14.00" width="3.50" shape="2451.25,1847.91 2458.22,1835.71"/>
    </edge>
    <edge id=":105015830_5" function="internal">
        <lane id=":105015830_5_0" index="0" speed="13.90" length="4.20" width="3.50" shape="2451.25,1847.91 2452.80,1845.96 2454.27,1845.07"/>
    </edge>
    <edge id=":105015830_6" function="internal">
        <lane id=":105015830_6_0" index="0" speed="13.90" length="5.08" width="3.50" shape="2454.27,1845.07 2454.64,1844.85 2456.78,1844.58 2459.20,1845.16"/>
    </edge>
    <edge id=":110152673_0" function="internal">
        <lane id=":110152673_0_0" index="0" speed="13.90" length="7.99" width="3.50" shape="1165.68,1552.38 1159.99,1546.77"/>
    </edge>
    <edge id=":110152673_1" function="internal">
        <lane id=":110152673_1_0" index="0" speed="13.90" length="3.80" width="4.00" shape="1165.68,1552.38 1164.75,1550.96 1164.53,1549.23 1164.62,1548.88"/>
    </edge>
    <edge id=":110152673_2" function="internal">
        <lane id=":110152673_2_0" index="0" speed="13.90" length="2.56" width="3.50" shape="1165.68,1552.38 1165.36,1550.84 1165.66,1549.91"/>
    </edge>
    <edge id=":110152673_6" function="internal">
        <lane id=":110152673_6_0" index="0" speed="13.90" length="4.40" width="4.00" shape="1164.62,1548.88 1165.02,1547.18 1166.21,1544.81"/>
    </edge>
    <edge id=":110152673_7" function="internal">
        <lane id=":110152673_7_0" index="0" speed="13.90" length="2.56" width="3.50" shape="1165.66,1549.91 1166.59,1549.60 1168.14,1549.89"/>
    </edge>
    <edge id=":110152673_3" function="internal">
        <lane id=":110152673_3_0" index="0" speed="13.90" length="4.51" width="4.00" shape="1162.44,1544.28 1163.64,1545.25 1164.66,1545.67 1165.52,1545.52 1166.21,1544.81"/>
    </edge>
    <edge id=":110152673_4" function="internal">
        <lane id=":110152673_4_0" index="0" speed="13.90" length="8.00" width="3.50" shape="1162.44,1544.28 1168.14,1549.89"/>
    </edge>
    <edge id=":110152673_5" function="internal">
        <lane id=":110152673_5_0" index="0" speed="13.90" length="2.56" width="3.50" shape="1162.44,1544.28 1162.76,1545.82 1162.46,1546.75"/>
    </edge>
    <edge id=":110152673_8" function="internal">
        <lane id=":110152673_8_0" index="0" speed="13.90" length="2.56" width="3.50" shape="1162.46,1546.75 1161.54,1547.07 1159.99,1546.77"/>
    </edge>
    <edge id=":110152677_0" function="internal">
        <lane id=":110152677_0_0" index="0" speed="13.90" length="8.00" width="4.00" shape="1225.61,1455.35 1218.30,1452.11"/>
    </edge>
    <edge id=":110152677_1" function="internal">
        <lane id=":110152677_1_0" index="0" speed="13.90" length="2.03" width="4.00" shape="1225.61,1455.35 1224.15,1454.41 1223.99,1454.17"/>
    </edge>
    <edge id=":110152677_4" function="internal">
        <lane id=":110152677_4_0" index="0" speed="13.90" length="4.22" width="4.00" shape="1223.99,1454.17 1223.39,1453.25 1223.35,1451.87 1224.02,1450.26"/>
    </edge>
    <edge id=":110152677_2" function="internal">
        <lane id=":110152677_2_0" index="0" speed="13.90" length="6.19" width="4.00" shape="1219.88,1457.11 1220.57,1455.52 1220.53,1454.15 1219.78,1453.02 1218.30,1452.11"/>
    </edge>
    <edge id=":110152677_3" function="internal">
        <lane id=":110152677_3_0" index="0" speed="13.90" length="8.00" width="4.00" shape="1219.88,1457.11 1224.02,1450.26"/>
    </edge>
    <edge id=":110152680_0" function="internal">
        <lane id=":110152680_0_0" index="0" speed="13.90" length="8.04" width="3.50" shape="1282.53,1360.14 1275.21,1356.79"/>
    </edge>
    <edge id=":110152680_1" function="internal">
        <lane id=":110152680_1_0" index="0" speed="13.90" length="2.56" width="3.50" shape="1282.53,1360.14 1281.68,1358.81 1281.63,1357.83"/>
    </edge>
    <edge id=":110152680_6" function="internal">
        <lane id=":110152680_6_0" index="0" speed="13.90" length="2.56" width="3.50" shape="1281.63,1357.83 1282.39,1357.21 1283.94,1356.94"/>
    </edge>
    <edge id=":110152680_2" function="internal">
        <lane id=":110152680_2_0" index="0" speed="13.90" length="7.95" width="3.50" shape="1276.71,1353.63 1283.94,1356.94"/>
    </edge>
    <edge id=":110152680_3" function="internal">
        <lane id=":110152680_3_0" index="0" speed="13.90" length="2.56" width="3.50" shape="1276.71,1353.63 1277.52,1354.98 1277.54,1355.96"/>
    </edge>
    <edge id=":110152680_7" function="internal">
        <lane id=":110152680_7_0" index="0" speed="13.90" length="2.56" width="3.50" shape="1277.54,1355.96 1276.77,1356.56 1275.21,1356.79"/>
    </edge>
    <edge id=":110152680_4" function="internal">
        <lane id=":110152680_4_0" index="0" speed="13.90" length="4.84" width="3.50" shape="1277.53,1360.36 1277.82,1359.41 1277.53,1358.50 1276.66,1357.63 1275.21,1356.79"/>
    </edge>
    <edge id=":110152680_5" function="internal">
        <lane id=":110152680_5_0" index="0" speed="13.90" length="8.00" width="3.50" shape="1277.53,1360.36 1279.04,1358.29 1280.61,1357.03 1282.24,1356.58 1283.94,1356.94"/>
    </edge>
    <edge id=":122762217_0" function="internal">
        <lane id=":122762217_0_0" index="0" speed="13.90" length="6.46" width="4.00" shape="1182.47,859.69 1182.29,861.44 1182.71,862.84 1183.74,863.88 1185.38,864.55"/>
    </edge>
    <edge id=":122762217_1" function="internal">
        <lane id=":122762217_1_0" index="0" speed="13.90" length="8.00" width="4.00" shape="1182.47,859.69 1180.64,867.47"/>
    </edge>
    <edge id=":122762217_2" function="internal">
        <lane id=":122762217_2_0" index="0" speed="13.90" length="8.00" width="4.00" shape="1177.58,862.76 1185.38,864.55"/>
    </edge>
    <edge id=":122762217_3" function="internal">
        <lane id=":122762217_3_0" index="0" speed="13.90" length="2.11" width="4.00" shape="1177.58,862.76 1179.25,863.36 1179.50,863.59"/>
    </edge>
    <edge id=":122762217_4" function="internal">
        <lane id=":122762217_4_0" index="0" speed="13.90" length="4.32" width="4.00" shape="1179.50,863.59 1180.31,864.34 1180.78,865.71 1180.64,867.47"/>
    </edge>
    <edge id=":122762534_0" function="internal">
        <lane id=":122762534_0_0" index="0" speed="13.90" length="6.44" width="4.00" shape="1103.26,843.41 1103.14,845.18 1103.61,846.55 1104.68,847.53 1106.34,848.13"/>
    </edge>
    <edge id=":122762534_1" function="internal">
        <lane id=":122762534_1_0" index="0" speed="13.90" length="8.00" width="4.00" shape="1103.26,843.41 1101.61,851.24"/>
    </edge>
    <edge id=":122762534_2" function="internal">
        <lane id=":122762534_2_0" index="0" speed="13.90" length="8.00" width="4.00" shape="1098.49,846.60 1106.34,848.13"/>
    </edge>
    <edge id=":122762534_3" function="internal">
        <lane id=":122762534_3_0" index="0" speed="13.90" length="2.06" width="4.00" shape="1098.49,846.60 1100.16,847.16 1100.38,847.36"/>
    </edge>
    <edge id=":122762534_4" function="internal">
        <lane id=":122762534_4_0" index="0" speed="13.90" length="4.35" width="4.00" shape="1100.38,847.36 1101.23,848.12 1101.72,849.48 1101.61,851.24"/>
    </edge>
    <edge id=":122773409_0" function="internal">
        <lane id=":122773409_0_0" index="0" speed="13.90" length="5.15" width="4.00" shape="1887.75,1454.26 1886.06,1453.65 1884.72,1453.50 1883.73,1453.79 1883.09,1454.52"/>
    </edge>
    <edge id=":122773409_1" function="internal">
        <lane id=":122773409_1_0" index="0" speed="13.90" length="8.00" width="4.00" shape="1887.75,1454.26 1880.45,1451.28"/>
        <lane id=":122773409_1_1" index="1" speed="13.90" length="8.00" width="4.00" shape="1889.37,1450.60 1881.86,1447.53"/>
    </edge>
    <edge id=":122773409_3" function="internal">
        <lane id=":122773409_3_0" index="0" speed="13.90" length="8.19" width="4.00" shape="1886.69,1447.17 1883.09,1454.52"/>
    </edge>
    <edge id=":122773409_4" function="internal">
        <lane id=":122773409_4_0" index="0" speed="13.90" length="5.27" width="4.00" shape="1886.69,1447.17 1886.05,1447.88 1885.03,1448.18 1883.63,1448.06 1881.86,1447.53"/>
    </edge>
    <edge id=":122782374_0" function="internal">
        <lane id=":122782374_0_0" index="0" speed="13.90" length="5.05" width="3.50" shape="2175.61,1725.72 2175.45,1726.72 2175.85,1727.64 2176.82,1728.50 2178.37,1729.28"/>
    </edge>
    <edge id=":122782374_1" function="internal">
        <lane id=":122782374_1_0" index="0" speed="13.90" length="7.99" width="4.00" shape="2175.61,1725.72 2172.17,1732.94"/>
    </edge>
    <edge id=":122782374_2" function="internal">
        <lane id=":122782374_2_0" index="0" speed="13.90" length="7.99" width="3.50" shape="2170.83,1726.39 2178.37,1729.28"/>
        <lane id=":122782374_2_1" index="1" speed="13.90" length="7.99" width="3.50" shape="2169.65,1729.68 2177.04,1732.52"/>
    </edge>
    <edge id=":122782374_4" function="internal">
        <lane id=":122782374_4_0" index="0" speed="13.90" length="4.73" width="4.00" shape="2169.65,1729.68 2171.14,1730.36 2172.05,1731.13 2172.39,1731.99 2172.17,1732.94"/>
    </edge>
    <edge id=":1347363882_0" function="internal">
        <lane id=":1347363882_0_0" index="0" speed="13.90" length="5.39" width="3.50" shape="2478.71,1786.69 2479.73,1786.86 2480.76,1786.46 2481.78,1785.49 2482.80,1783.96"/>
    </edge>
    <edge id=":1347363882_1" function="internal">
        <lane id=":1347363882_1_0" index="0" speed="13.90" length="8.00" width="3.50" shape="2478.91,1790.96 2482.80,1783.96"/>
        <lane id=":1347363882_1_1" index="1" speed="13.90" length="8.00" width="3.50" shape="2481.97,1792.65 2485.85,1785.67"/>
    </edge>
    <edge id=":1997954759_0" function="internal">
        <lane id=":1997954759_0_0" index="0" speed="13.90" length="7.36" width="4.00" shape="2474.49,1428.51 2476.34,1428.97 2478.12,1428.97 2479.84,1428.50 2481.48,1427.55"/>
    </edge>
    <edge id=":1997954759_1" function="internal">
        <lane id=":1997954759_1_0" index="0" speed="13.90" length="8.00" width="4.00" shape="2474.49,1428.51 2481.97,1431.36"/>
    </edge>
    <edge id=":1997954759_2" function="internal">
        <lane id=":1997954759_2_0" index="0" speed="13.90" length="7.91" width="4.00" shape="2476.39,1433.44 2477.51,1431.39 2478.43,1430.07 2479.61,1428.96 2481.48,1427.55"/>
    </edge>
    <edge id=":1997954759_3" function="internal">
        <lane id=":1997954759_3_0" index="0" speed="13.90" length="2.04" width="4.00" shape="2476.39,1433.44 2477.43,1431.98 2477.64,1431.85"/>
    </edge>
    <edge id=":1997954759_4" function="internal">
        <lane id=":1997954759_4_0" index="0" speed="13.90" length="4.60" width="4.00" shape="2477.64,1431.85 2478.71,1431.15 2480.22,1430.94 2481.97,1431.36"/>
    </edge>
    <edge id=":26867544_0" function="internal">
        <lane id=":26867544_0_0" index="0" speed="13.90" length="5.17" width="3.50" shape="2295.64,2107.49 2296.63,2107.74 2297.63,2107.43 2298.62,2106.53 2299.62,2105.07"/>
    </edge>
    <edge id=":26867544_1" function="internal">
        <lane id=":26867544_1_0" index="0" speed="13.90" length="8.00" width="3.50" shape="2295.65,2112.02 2299.62,2105.07"/>
        <lane id=":26867544_1_1" index="1" speed="13.90" length="8.00" width="3.50" shape="2298.69,2113.75 2302.66,2106.80"/>
    </edge>
    <edge id=":26867546_0" function="internal">
        <lane id=":26867546_0_0" index="0" speed="13.90" length="5.10" width="3.50" shape="2330.50,2046.40 2331.48,2046.68 2332.46,2046.38 2333.44,2045.51 2334.43,2044.07"/>
    </edge>
    <edge id=":26867546_1" function="internal">
        <lane id=":26867546_1_0" index="0" speed="13.90" length="8.00" width="3.50" shape="2330.46,2051.01 2334.43,2044.07"/>
        <lane id=":26867546_1_1" index="1" speed="13.90" length="8.00" width="3.50" shape="2333.50,2052.74 2337.47,2045.80"/>
    </edge>
    <edge id=":26867548_0" function="internal">
        <lane id=":26867548_0_0" index="0" speed="13.90" length="11.00" width="4.00" shape="2520.69,1734.48 2510.53,1730.13"/>
        <lane id=":26867548_0_1" index="1" speed="13.90" length="11.00" width="4.00" shape="2522.22,1730.79 2512.18,1726.48"/>
    </edge>
    <edge id=":26867548_2" function="internal">
        <lane id=":26867548_2_0" index="0" speed="13.90" length="3.24" width="3.50" shape="2522.22,1730.79 2520.37,1729.70 2519.73,1728.82"/>
    </edge>
    <edge id=":26867548_6" function="internal">
        <lane id=":26867548_6_0" index="0" speed="13.90" length="4.30" width="3.50" shape="2519.73,1728.82 2519.38,1728.34 2519.27,1726.70 2520.03,1724.78"/>
    </edge>
    <edge id=":26867548_3" function="internal">
        <lane id=":26867548_3_0" index="0" speed="13.90" length="3.21" width="4.00" shape="2511.44,1732.73 2511.75,1731.91 2511.70,1731.20 2511.29,1730.61 2510.53,1730.13"/>
    </edge>
    <edge id=":26867548_4" function="internal">
        <lane id=":26867548_4_0" index="0" speed="13.90" length="11.12" width="3.50" shape="2511.44,1732.73 2517.00,1723.02"/>
        <lane id=":26867548_4_1" index="1" speed="13.90" length="11.12" width="3.50" shape="2514.53,1734.37 2520.03,1724.78"/>
    </edge>
    <edge id=":26978163_0" function="internal">
        <lane id=":26978163_0_0" index="0" speed="13.90" length="13.73" width="3.00" shape="919.06,1999.42 906.84,1993.17"/>
    </edge>
    <edge id=":26978163_1" function="internal">
        <lane id=":26978163_1_0" index="0" speed="13.90" length="3.64" width="4.00" shape="919.06,1999.42 917.27,1997.64 916.86,1996.61"/>
    </edge>
    <edge id=":26978163_2" function="internal">
        <lane id=":26978163_2_0" index="0" speed="13.90" length="2.19" width="3.00" shape="919.06,1999.42 918.44,1998.22 918.47,1997.39"/>
    </edge>
    <edge id=":26978163_12" function="internal">
        <lane id=":26978163_12_0" index="0" speed="13.90" length="12.11" width="4.00" shape="916.86,1996.61 916.05,1994.60 915.43,1990.28 915.38,1984.70"/>
    </edge>
    <edge id=":26978163_13" function="internal">
        <lane id=":26978163_13_0" index="0" speed="13.90" length="2.19" width="3.00" shape="918.47,1997.39 919.16,1996.91 920.51,1996.79"/>
    </edge>
    <edge id=":26978163_3" function="internal">
        <lane id=":26978163_3_0" index="0" speed="13.90" length="5.62" width="4.00" shape="910.70,1985.05 912.71,1985.84 914.16,1986.05 915.05,1985.67 915.38,1984.70"/>
    </edge>
    <edge id=":26978163_4" function="internal">
        <lane id=":26978163_4_0" index="0" speed="13.90" length="14.08" width="3.00" shape="910.70,1985.05 923.39,1991.53"/>
        <lane id=":26978163_4_1" index="1" speed="13.90" length="14.08" width="3.00" shape="909.41,1987.76 921.95,1994.16"/>
        <lane id=":26978163_4_2" index="2" speed="13.90" length="14.08" width="3.00" shape="908.12,1990.47 920.51,1996.79"/>
    </edge>
    <edge id=":26978163_7" function="internal">
        <lane id=":26978163_7_0" index="0" speed="13.90" length="2.19" width="3.00" shape="908.12,1990.47 908.82,1991.63 908.83,1992.46"/>
    </edge>
    <edge id=":26978163_14" function="internal">
        <lane id=":26978163_14_0" index="0" speed="13.90" length="2.19" width="3.00" shape="908.83,1992.46 908.17,1992.98 906.84,1993.17"/>
    </edge>
    <edge id=":26978163_8" function="internal">
        <lane id=":26978163_8_0" index="0" speed="13.90" length="10.18" width="3.00" shape="914.34,1999.49 913.97,1998.11 912.60,1996.60 910.22,1994.96 906.84,1993.17"/>
    </edge>
    <edge id=":26978163_9" function="internal">
        <lane id=":26978163_9_0" index="0" speed="13.90" length="14.82" width="4.00" shape="914.34,1999.49 915.38,1984.70"/>
    </edge>
    <edge id=":26978163_10" function="internal">
        <lane id=":26978163_10_0" index="0" speed="13.90" length="11.91" width="3.00" shape="914.34,1999.49 915.16,1995.78 916.70,1993.66 918.96,1993.12 921.95,1994.16"/>
    </edge>
    <edge id=":26978163_11" function="internal">
        <lane id=":26978163_11_0" index="0" speed="13.90" length="8.66" width="3.00" shape="914.34,1999.49 914.94,1997.16 916.17,1995.94 918.03,1995.81 920.51,1996.79"/>
    </edge>
    <edge id=":2862774359_0" function="internal">
        <lane id=":2862774359_0_0" index="0" speed="13.90" length="10.99" width="4.00" shape="1735.37,1977.58 1731.23,1987.76"/>
    </edge>
    <edge id=":2862774359_1" function="internal">
        <lane id=":2862774359_1_0" index="0" speed="13.90" length="2.93" width="4.00" shape="1727.53,1985.66 1729.24,1984.80 1730.25,1984.85"/>
    </edge>
    <edge id=":2862774359_2" function="internal">
        <lane id=":2862774359_2_0" index="0" speed="13.90" length="3.28" width="4.00" shape="1730.25,1984.85 1730.43,1984.86 1731.09,1985.85 1731.23,1987.76"/>
    </edge>
    <edge id=":3003111737_0" function="internal">
        <lane id=":3003111737_0_0" index="0" speed="13.90" length="6.42" width="4.00" shape="1911.31,480.82 1909.64,480.25 1908.20,480.36 1906.98,481.14 1905.98,482.59"/>
    </edge>
    <edge id=":3003111737_1" function="internal">
        <lane id=":3003111737_1_0" index="0" speed="13.90" length="8.00" width="4.00" shape="1911.31,480.82 1909.20,479.74 1907.78,478.96 1906.40,478.09 1904.42,476.79"/>
    </edge>
    <edge id=":3003111743_0" function="internal">
        <lane id=":3003111743_0_0" index="0" speed="13.90" length="8.27" width="4.00" shape="2036.67,625.32 2034.25,625.73 2032.59,625.99 2030.94,626.32 2028.58,626.98"/>
    </edge>
    <edge id=":3003111743_1" function="internal">
        <lane id=":3003111743_1_0" index="0" speed="13.90" length="9.09" width="4.00" shape="2036.67,625.32 2033.86,625.49 2032.31,624.73 2032.01,623.02 2032.97,620.37"/>
    </edge>
    <edge id=":3003111755_0" function="internal">
        <lane id=":3003111755_0_0" index="0" speed="13.90" length="7.00" width="4.00" shape="2058.57,788.99 2060.54,789.02 2062.24,788.64 2063.67,787.86 2064.82,786.67"/>
    </edge>
    <edge id=":3003111755_1" function="internal">
        <lane id=":3003111755_1_0" index="0" speed="13.90" length="8.05" width="4.00" shape="2058.57,788.99 2060.95,789.25 2062.57,789.50 2064.14,789.98 2066.33,790.90"/>
    </edge>
    <edge id=":3003111756_0" function="internal">
        <lane id=":3003111756_0_0" index="0" speed="13.90" length="6.27" width="4.00" shape="1883.96,726.36 1883.16,727.91 1883.09,729.30 1883.74,730.53 1885.12,731.60"/>
    </edge>
    <edge id=":3003111756_1" function="internal">
        <lane id=":3003111756_1_0" index="0" speed="13.90" length="8.00" width="4.00" shape="1883.96,726.36 1879.33,732.88"/>
    </edge>
    <edge id=":3003111763_0" function="internal">
        <lane id=":3003111763_0_0" index="0" speed="13.90" length="8.00" width="4.00" shape="2000.88,646.19 2004.33,653.41"/>
    </edge>
    <edge id=":3003111763_1" function="internal">
        <lane id=":3003111763_1_0" index="0" speed="13.90" length="7.13" width="4.00" shape="2000.88,646.19 2001.48,647.95 2001.53,649.65 2001.04,651.27 2000.00,652.83"/>
    </edge>
    <edge id=":3003111767_0" function="internal">
        <lane id=":3003111767_0_0" index="0" speed="13.90" length="6.38" width="4.00" shape="1926.45,750.56 1925.75,752.17 1925.74,753.61 1926.43,754.86 1927.82,755.94"/>
    </edge>
    <edge id=":3003111767_1" function="internal">
        <lane id=":3003111767_1_0" index="0" speed="13.90" length="8.00" width="4.00" shape="1920.87,751.98 1927.82,755.94"/>
    </edge>
    <edge id=":3003111778_0" function="internal">
        <lane id=":3003111778_0_0" index="0" speed="13.90" length="8.00" width="4.00" shape="1937.93,494.35 1930.81,490.72"/>
    </edge>
    <edge id=":3003111778_1" function="internal">
        <lane id=":3003111778_1_0" index="0" speed="13.90" length="2.06" width="4.00" shape="1936.22,489.00 1935.19,490.43 1934.94,490.58"/>
    </edge>
    <edge id=":3003111778_2" function="internal">
        <lane id=":3003111778_2_0" index="0" speed="13.90" length="4.41" width="4.00" shape="1934.94,490.58 1933.94,491.20 1932.48,491.29 1930.81,490.72"/>
    </edge>
    <edge id=":3003111779_0" function="internal">
        <lane id=":3003111779_0_0" index="0" speed="13.90" length="6.40" width="4.00" shape="1406.37,392.64 1404.69,392.13 1403.25,392.30 1402.08,393.13 1401.17,394.64"/>
    </edge>
    <edge id=":3003111779_1" function="internal">
        <lane id=":3003111779_1_0" index="0" speed="13.90" length="7.99" width="4.00" shape="1403.91,387.14 1403.21,389.40 1402.69,390.94 1402.10,392.45 1401.17,394.64"/>
    </edge>
    <edge id=":3003111787_0" function="internal">
        <lane id=":3003111787_0_0" index="0" speed="13.90" length="0.17" width="4.00" shape="1327.69,528.81 1327.66,528.86 1327.65,528.89 1327.64,528.92 1327.62,528.96"/>
    </edge>
    <edge id=":3003111788_0" function="internal">
        <lane id=":3003111788_0_0" index="0" speed="13.90" length="6.57" width="4.00" shape="1716.68,367.39 1714.96,366.90 1713.47,367.06 1712.21,367.86 1711.16,369.31"/>
    </edge>
    <edge id=":3003111788_1" function="internal">
        <lane id=":3003111788_1_0" index="0" speed="13.90" length="8.00" width="4.00" shape="1716.68,367.39 1709.36,364.15"/>
    </edge>
    <edge id=":3003111792_0" function="internal">
        <lane id=":3003111792_0_0" index="0" speed="13.90" length="6.40" width="4.00" shape="1647.41,529.37 1646.85,531.04 1646.96,532.48 1647.75,533.68 1649.22,534.65"/>
    </edge>
    <edge id=":3003111792_1" function="internal">
        <lane id=":3003111792_1_0" index="0" speed="13.90" length="7.99" width="4.00" shape="1642.00,531.22 1649.22,534.65"/>
    </edge>