<?xml version='1.0' encoding='UTF-8'?>
<edges>
  <edge id="10538017" from="920211373" to="Custom451" numLanes="1" width="4.0" shape="-786.939231,965.248992 -795.256317,947.581046 -795.344169,947.415114 -803.707426,933.267501 -803.762881,933.179046 -811.147308,922.056322 -811.274912,921.884781 -822.636484,908.203642 -822.709036,908.121009 -832.110202,897.989530 -832.173083,897.924759 -844.547469,885.741149 -844.656446,885.641503 -844.772478,885.550168 -863.628626,871.803896 -863.712420,871.746018 -880.104042,861.030054 -880.321684,860.906481 -899.233944,851.682381 -899.346165,851.631860 -921.750570,842.363687 -921.865078,842.320373 -991.100081,818.526940 -1126.518970,769.757339 -1219.076237,730.916395 "/>
  <edge id="10654626" from="94062902" to="94062906" numLanes="1" width="4.0" shape="-585.765571,-833.858706 -636.998554,-701.515163 "/>
  <edge id="10664308" from="94242378" to="94242376" numLanes="1" width="4.0" shape="-793.957809,40.861530 -844.756910,284.395234 "/>
  <edge id="11494008" from="102452707" to="102452710" numLanes="1" width="4.0" shape="-383.176162,882.975736 -281.036567,974.762304 "/>
  <edge id="11729358" from="105015364" to="Custom452" numLanes="1" width="4.0" shape="817.340712,1088.061345 954.507708,1163.186361 998.166180,1187.084433 999.190602,1187.645188 1067.945426,1225.296730 "/>
  <edge id="38108308" from="606292172" to="459157618" numLanes="2" width="3.5" shape="-321.477126,1089.402838 -212.378161,1169.581578 "/>
  <edge id="38653462" from="457724141" to="457724152" numLanes="1" width="4.0" shape="-94.769448,93.341319 -94.573265,94.163619 -94.517424,94.354902 -94.442826,94.539678 -94.350211,94.716113 -94.240498,94.882457 -94.114778,95.037058 -93.974297,95.178381 -87.999250,100.618258 -85.625622,102.929569 "/>
  <edge id="38653474" from="457724152" to="103236853" numLanes="1" width="4.0" shape="-85.721084,103.113117 -91.160591,102.083460 -91.339086,102.057944 -91.519154,102.048608 -97.439485,102.008895 -97.626334,102.016384 -97.811667,102.041291 -97.993863,102.083399 -100.238399,102.714009 "/>
  <edge id="38653482" from="457724218" to="457724296" numLanes="1" width="4.0" shape="48.738121,-102.096727 42.321546,-101.888758 42.136311,-101.874119 41.953235,-101.842351 34.475016,-100.183585 34.307750,-100.138806 34.144985,-100.079726 33.987939,-100.006789 21.379973,-93.473457 "/>
  <edge id="38653483" from="457724296" to="94060954" numLanes="1" width="4.0" shape="12.065266,-87.159214 9.963939,-85.694226 9.819788,-85.583670 7.147718,-83.334432 7.017221,-83.214305 6.897881,-83.083088 6.790635,-82.941814 6.696327,-82.791594 2.921805,-76.141561 "/>
  <edge id="38653484" from="94060952" to="457724296" numLanes="1" width="4.0" shape="-0.399624,-88.117908 -0.363197,-88.105806 -0.192017,-88.057275 -0.017202,-88.024150 0.159866,-88.006693 11.019846,-87.422119 11.248488,-87.422900 11.475547,-87.449772 11.913199,-87.527149 "/>
  <edge id="38728303" from="459148244" to="459148242" numLanes="1" width="4.0" shape="734.337349,295.648176 884.469913,355.474971 "/>
  <edge id="38728321" from="459148381" to="629568139" numLanes="1" width="4.0" shape="0.129288,248.311636 -111.094887,176.800668 "/>
  <edge id="38728322" from="459148389" to="459097155" numLanes="1" width="4.0" shape="-3.382414,269.490648 116.391750,339.954981 "/>
  <edge id="38728326" from="94244600" to="459148413" numLanes="1" width="4.0" shape="-91.901650,682.972093 -12.670594,728.060647 "/>
  <edge id="38728327" from="Custom453" to="459148433" numLanes="1" width="4.0" shape="-165.969774,402.953280 -114.013062,433.589906 "/>
  <edge id="38728332" from="459148436" to="459148444" numLanes="1" width="4.0" shape="-3.307966,364.448935 -40.301075,425.731341 "/>
  <edge id="38728335" from="459148439" to="459148460" numLanes="1" width="4.0" shape="24.995171,381.711725 -13.283396,443.899923 "/>
  <edge id="38728338" from="459148504" to="459148510" numLanes="1" width="4.0" shape="-128.790725,471.274562 -14.049597,544.647890 "/>
  <edge id="38728340" from="Custom454" to="459148542" numLanes="1" width="4.0" shape="-384.289544,527.379324 -349.071981,547.965282 "/>
  <edge id="38728347" from="Custom455" to="459148579" numLanes="1" width="4.0" shape="-431.711180,572.125113 -381.752416,600.904516 "/>
  <edge id="38728349" from="459148575" to="459148610" numLanes="1" width="4.0" shape="-368.157745,594.013739 -254.101033,664.219674 "/>
  <edge id="38728351" from="459148565" to="459148627" numLanes="1" width="4.0" shape="-336.314082,542.476097 -219.692420,613.354569 "/>
  <edge id="38728362" from="Custom456" to="459148723" numLanes="1" width="4.0" shape="-321.269359,702.773928 -290.132918,722.669159 "/>
  <edge id="38728363" from="459148727" to="459148728" numLanes="1" width="4.0" shape="-297.654249,750.203151 -184.647152,818.993017 "/>
  <edge id="38730518" from="459157621" to="459148246" numLanes="1" width="4.0" shape="521.505871,735.279723 547.217062,684.783606 "/>
  <edge id="38730520" from="Custom457" to="459157636" numLanes="1" width="4.0" shape="303.317266,996.208065 308.723386,978.563550 314.780863,971.276583 325.360301,966.932365 385.662310,1000.777914 "/>
  <edge id="38730524" from="Custom458" to="459157648" numLanes="1" width="4.0" shape="515.298019,956.444265 560.803317,971.766426 "/>
  <edge id="38730525" from="459157653" to="459157647" numLanes="1" width="4.0" shape="697.262808,1032.663975 564.895956,980.819838 "/>
  <edge id="38730537" from="Custom459" to="98409038" numLanes="1" width="4.0" shape="520.027345,903.201678 548.945107,843.953307 "/>
  <edge id="38730538" from="Custom460" to="459157649" numLanes="1" width="4.0" shape="642.693350,961.998747 585.438395,938.389722 "/>
  <edge id="38730540" from="459157794" to="459157801" numLanes="1" width="4.0" shape="709.087797,906.395383 688.893208,948.331394 688.811063,948.528178 688.750336,948.732589 688.711717,948.942304 688.405600,951.306361 688.389783,951.508710 688.394556,951.711620 688.419870,951.913001 688.465464,952.110780 688.530869,952.302919 688.615410,952.487440 688.718218,952.662443 688.838233,952.826124 688.974220,952.976799 690.659092,954.663120 690.817638,954.805719 690.990466,954.930628 691.175611,955.036426 730.915095,975.013952 "/>
  <edge id="38730543" from="Custom461" to="459157881" numLanes="1" width="4.0" shape="897.505178,1074.132864 841.990010,1044.789088 "/>
  <edge id="38731498" from="459148393" to="459166745" numLanes="1" width="4.0" shape="191.831802,374.706923 260.060566,396.815335 "/>
  <edge id="38731500" from="459166743" to="459166750" numLanes="1" width="4.0" shape="164.974952,609.093795 333.384228,674.065229 "/>
  <edge id="38731501" from="459166744" to="459166747" numLanes="1" width="4.0" shape="249.907088,435.292056 414.766415,504.150972 "/>
  <edge id="38731503" from="Custom462" to="459166804" numLanes="1" width="4.0" shape="479.418534,504.828301 518.478552,413.554356 "/>
  <edge id="38731504" from="459166748" to="459166803" numLanes="1" width="4.0" shape="409.597026,533.408493 516.914409,575.579395 "/>
  <edge id="38731505" from="Custom463" to="459166802" numLanes="1" width="4.0" shape="394.007205,689.897245 410.277870,697.686519 411.643035,704.133121 413.483974,712.826429 413.533891,713.015843 413.602097,713.199465 413.687938,713.375535 413.790591,713.542363 413.909072,713.698349 414.042243,713.841997 414.188828,713.971929 414.347420,714.086898 414.516498,714.185802 441.534409,728.261834 "/>
  <edge id="38731522" from="459166893" to="459166944" numLanes="1" width="4.0" shape="685.649222,-53.779374 692.275946,-50.847595 "/>
  <edge id="38731524" from="459166894" to="459166888" numLanes="1" width="4.0" shape="796.195536,-284.848484 797.772291,-282.787030 "/>
  <edge id="38756559" from="459166894" to="Custom464" numLanes="2" width="3.5" shape="798.455769,-293.623696 817.024388,-330.528758 835.411293,-348.615014 858.719799,-359.857892 885.859568,-360.543698 910.152189,-351.678611 934.240473,-331.914438 1023.435781,-228.767757 1023.510289,-228.684328 1067.193561,-181.316280 1071.166430,-177.000291 1121.735313,-120.246392 1121.817038,-120.157791 1180.167312,-59.044356 1180.176569,-59.034698 1181.845026,-57.300551 1207.663553,-28.976682 1244.085913,13.543072 1244.174711,13.642819 1274.190129,46.091003 "/>
  <edge id="38766007" from="459157618" to="920269006" numLanes="2" width="3.5" shape="-212.528356,1169.464781 -150.052781,1220.833702 -150.029408,1220.852752 -117.296938,1247.296849 -117.195970,1247.375413 -104.286872,1257.046662 -104.081450,1257.189392 -96.138350,1262.297415 -95.905918,1262.434518 -85.462244,1268.063841 -85.115299,1268.226995 -73.663840,1272.864401 -73.371926,1272.967833 -73.072012,1273.045055 -63.092063,1275.148735 -63.034727,1275.160321 -52.057094,1277.283337 -51.743728,1277.329344 -51.427487,1277.346834 -35.429761,1277.506640 -35.041230,1277.488910 -21.522894,1276.116266 -21.267574,1276.080800 -21.015557,1276.026639 -11.500502,1273.612002 -11.124975,1273.493863 4.434092,1267.618536 4.770457,1267.470915 5.089499,1267.288853 18.179177,1258.879153 18.554467,1258.600987 29.647498,1249.169320 29.760097,1249.069333 46.916138,1233.161733 46.992410,1233.088843 90.920714,1189.822925 91.059756,1189.677885 111.757815,1166.807574 143.557814,1133.502496 "/>
  <edge id="38766025" from="Custom465" to="920269005" numLanes="3" width="3.5" shape="-994.368604,789.788020 -892.181253,819.428732 -892.100209,819.451537 -823.300206,838.217127 -823.283839,838.221562 -755.525027,856.468226 -719.675370,866.858813 -719.644076,866.867778 -690.358479,875.159359 -672.048813,881.331795 -672.035446,881.336281 -644.261854,890.616143 -619.580729,900.317834 -596.381830,910.513216 -567.202855,924.786405 -531.520830,943.661372 -504.264972,958.950709 -478.511417,973.874889 -452.985236,990.364837 -427.811168,1009.100845 -427.722482,1009.165422 -403.402718,1026.487878 "/>
  <edge id="38766034" from="318684657" to="920224127" numLanes="2" width="3.5" shape="-758.943299,1312.746391 -745.255563,1243.522945 -745.238671,1243.431093 -733.376755,1173.714202 -726.047195,1138.706890 -721.357524,1117.283576 -717.249358,1102.892734 -712.847006,1088.530105 -712.795751,1088.344878 -709.604150,1075.442902 -702.683584,1059.085334 -693.045822,1045.951012 -684.382885,1035.858047 -684.275769,1035.726963 -676.234015,1025.385149 "/>
  <edge id="38938254" from="606292172" to="Custom466" numLanes="1" width="4.0" shape="-324.451085,1092.221760 -320.520287,1096.250928 -320.459425,1096.310707 -296.183826,1119.158013 -296.124086,1119.212012 -231.633021,1175.187914 -172.079213,1227.023021 -172.010465,1227.080208 -95.921870,1287.547445 -95.870065,1287.587251 -38.870724,1329.922251 -38.790656,1329.978730 -7.378288,1351.003516 7.942205,1363.431209 19.019169,1374.260187 23.657178,1382.366381 26.310913,1393.055641 26.753389,1405.698528 24.419577,1419.191537 15.274254,1439.429669 6.806124,1456.642981 -14.080762,1490.939820 "/>
  <edge id="38938280" from="920224124" to="462751958" numLanes="1" width="4.0" shape="123.683287,1114.726167 123.269557,1106.181514 123.255593,1106.023384 123.229132,1105.866861 121.323769,1096.801647 121.258815,1096.565513 121.165487,1096.339089 117.732290,1089.272037 117.624695,1089.078590 117.496380,1088.898218 113.050369,1083.328775 112.862483,1083.124311 106.425952,1077.029341 106.247125,1076.878815 106.051958,1076.750182 98.092642,1072.147738 97.922365,1072.059879 97.744462,1071.988717 88.783330,1068.893357 88.570509,1068.832794 81.578913,1067.255403 81.370097,1067.219791 81.158686,1067.206465 73.165370,1067.126786 72.881634,1067.144161 65.876109,1068.076336 65.698246,1068.108238 65.523988,1068.156064 65.354758,1068.219423 57.315353,1071.650990 57.178032,1071.715874 48.640740,1076.153843 48.445232,1076.270050 48.264181,1076.407702 41.889198,1081.853434 "/>
  <edge id="38938315" from="462752727" to="459166799" numLanes="1" width="4.0" shape="335.896040,896.530484 337.805831,888.532495 "/>
  <edge id="39005712" from="464694723" to="Custom467" numLanes="1" width="4.0" shape="-818.452009,1061.231431 -873.336443,1165.739859 -873.342343,1165.751182 -916.056030,1248.361584 "/>
  <edge id="39006740" from="464704675" to="Custom468" numLanes="1" width="4.0" shape="-839.719278,1037.208776 -811.199000,959.241855 "/>
  <edge id="39007969" from="464728642" to="Custom469" numLanes="1" width="4.0" shape="-728.504647,564.024122 -812.241333,793.178132 "/>
  <edge id="39007991" from="Custom470" to="Custom471" numLanes="1" width="4.0" shape="-934.292866,121.955955 -860.537461,136.420811 "/>
  <edge id="39007997" from="Custom472" to="464728872" numLanes="1" width="4.0" shape="-612.762050,801.771326 -541.151762,847.139952 "/>
  <edge id="39007999" from="Custom473" to="464728845" numLanes="1" width="4.0" shape="-586.806657,745.645809 -529.027009,787.513249 "/>
  <edge id="39008000" from="Custom474" to="464729089" numLanes="1" width="4.0" shape="-545.019563,699.196337 -493.481102,743.465243 "/>
  <edge id="39008003" from="464729158" to="464728814" numLanes="1" width="4.0" shape="-421.527513,859.870271 -494.488727,806.168237 "/>
  <edge id="39008028" from="464728827" to="464728872" numLanes="1" width="4.0" shape="-523.759029,812.568861 -536.952981,843.126095 "/>
  <edge id="51180496" from="459722771" to="920243739" numLanes="3" width="3.5" shape="-439.975491,1008.158936 -449.045867,1001.406082 -449.186277,1001.305098 -482.947078,977.858281 -483.250539,977.662645 -535.439689,946.503811 -535.578895,946.423563 -571.489277,926.448325 "/>
  <edge id="51180497" from="318684657" to="920211229" numLanes="1" width="4.0" shape="-765.840021,1311.408971 -762.443100,1285.473544 -744.424573,1162.724595 -732.006442,1089.035872 -731.980238,1088.783627 -731.316087,1072.216317 -731.315132,1072.085230 -731.673805,1058.017222 -731.676858,1057.946546 -732.534441,1043.873566 -732.546634,1043.743562 -734.396977,1029.155045 -734.412099,1029.055830 -737.730192,1010.435625 -737.760235,1010.296070 -742.091162,993.173357 -742.140280,993.009123 -746.505200,980.408797 -746.517076,980.375471 -751.870920,965.761457 -751.931489,965.614490 -760.743539,946.433986 "/>
  <edge id="51180498" from="459722771" to="920042211" numLanes="2" width="3.5" shape="-446.314030,1016.917305 -447.479701,1016.382908 -447.851176,1016.237610 -465.290527,1010.539035 -465.617686,1010.449424 -484.568635,1006.234051 -484.830630,1006.186155 -499.810616,1004.032992 -500.040545,1004.007666 -515.030513,1002.856357 -515.379496,1002.847015 -530.373305,1003.193909 -530.478330,1003.197918 -546.486136,1004.049726 -546.712226,1004.069123 -566.238275,1006.384103 -566.667644,1006.462412 -586.730169,1011.431395 -587.130073,1011.556273 -599.662015,1016.309998 "/>
  <edge id="78389214" from="920042211" to="Custom475" numLanes="2" width="3.5" shape="-599.884773,1016.403411 -616.960346,1024.267481 -617.082801,1024.326788 -630.645081,1031.223910 -630.863502,1031.344984 -646.457446,1040.731357 -646.679289,1040.876614 -646.889498,1041.038249 -663.022478,1054.445682 -663.060893,1054.478077 -674.657603,1064.400522 -674.852732,1064.580744 -675.033631,1064.775245 -689.201151,1081.217361 -689.366700,1081.424916 -689.516041,1081.644422 -697.639532,1094.616606 -697.651622,1094.636052 -706.284200,1108.623795 -706.382729,1108.793964 -715.046311,1124.775869 -715.231349,1125.175302 -720.875583,1139.689097 -720.982026,1140.007143 -727.200299,1162.043701 -727.264377,1162.310346 -735.154917,1201.915421 -735.160835,1201.945827 -769.462217,1382.436701 -769.492819,1382.625800 -780.841126,1467.404285 "/>
  <edge id="78389221" from="26978163" to="920211373" numLanes="1" width="4.0" shape="-771.012489,1068.813804 -770.696019,1060.779064 -770.057203,1046.727115 -770.057844,1046.532296 -770.895377,1030.446363 -770.901205,1030.365802 -772.252677,1015.782316 -772.276056,1015.611018 -774.640443,1002.534374 -774.684717,1002.343472 -778.551747,988.736856 -778.563184,988.698103 -781.956432,977.615068 -782.013980,977.452502 -786.893931,965.352746 "/>
  <edge id="78412393" from="920211229" to="318684503" numLanes="1" width="4.0" shape="-760.823660,946.278007 -769.181885,931.624754 -769.241722,931.526526 -776.132296,920.914326 -776.226474,920.781457 -785.607495,908.627551 -785.672072,908.548171 -799.997086,891.831758 -800.108110,891.712409 -814.963068,876.994606 -815.067273,876.898439 -830.436234,863.692486 -830.648254,863.533458 -845.534445,853.839274 -862.412433,842.627186 -862.633771,842.499730 -886.520978,830.707340 -886.575452,830.681461 -887.706015,830.165128 "/>
  <edge id="78413525" from="98409726" to="920224117" numLanes="1" width="4.0" shape="588.317729,693.621447 622.418606,618.794178 631.475441,601.514078 637.856427,593.310359 739.125714,500.004067 "/>
  <edge id="78413527" from="920224121" to="462752119" numLanes="2" width="3.5" shape="138.139392,1125.913610 167.882774,1094.623695 172.913974,1089.849259 "/>
  <edge id="78413528" from="459723306" to="920224124" numLanes="1" width="4.0" shape="115.912128,1138.352419 117.259881,1135.774897 117.344995,1135.589708 120.938434,1126.588701 120.988123,1126.449509 121.027397,1126.307027 123.632039,1115.282761 "/>
  <edge id="78413532" from="920224127" to="Custom476" numLanes="2" width="3.5" shape="-676.540519,1025.729809 -650.883764,1000.450403 -631.435832,987.853909 -613.620248,977.515162 -593.562141,970.997706 -593.506405,970.979077 -578.286017,965.749415 -555.680249,962.326384 -555.618391,962.316450 -536.390541,959.051840 -515.430997,959.260573 -495.211732,961.940288 -478.442474,964.587093 -464.276651,968.175999 -451.084501,972.744463 -434.412901,979.837457 -422.319246,986.302726 -405.669976,998.358650 -376.943263,1020.211049 -288.181739,1089.380558 -166.717531,1188.518068 "/>
  <edge id="78415379" from="920243739" to="920243744" numLanes="1" width="4.0" shape="-601.486160,921.298548 -603.320695,920.802826 -603.381689,920.787370 -623.292458,916.073875 -646.192932,909.824171 -646.243812,909.811002 -691.127636,898.820510 -691.154530,898.814121 -802.893672,873.084624 "/>
  <edge id="78415381" from="920243744" to="Custom477" numLanes="1" width="4.0" shape="-802.879032,873.088053 -866.694199,857.887614 -989.323353,826.039064 -1063.929006,805.235599 "/>
  <edge id="78418291" from="920269005" to="606292172" numLanes="3" width="3.5" shape="-403.700298,1026.259463 -350.915901,1069.858880 "/>
  <edge id="78419003" from="920269007" to="920274743" numLanes="1" width="4.0" shape="178.551514,1101.210567 178.798143,1101.063214 186.390605,1097.341967 193.699734,1096.953366 199.637399,1098.393751 202.954570,1100.218768 203.785574,1100.923939 "/>
  <edge id="78419601" from="459157643" to="920284608" numLanes="1" width="4.0" shape="246.602828,1107.041718 246.562563,1107.045389 246.369278,1107.072575 246.179563,1107.118472 245.995226,1107.182644 245.818022,1107.264479 238.272452,1111.206704 238.119374,1111.295515 237.974746,1111.397511 237.890658,1111.462568 "/>
  <edge id="120088135" from="Custom478" to="1347363882" numLanes="1" width="4.0" shape="716.474151,840.088076 733.809527,847.331148 733.819719,847.335374 744.321905,851.655505 780.353677,868.487509 781.990372,869.252080 782.032004,869.270952 789.508792,872.557672 "/>
  <edge id="130345862" from="Custom479" to="Custom480" numLanes="1" width="4.0" shape="895.131547,-418.151839 886.314969,-424.016539 865.005719,-439.283801 864.853466,-439.382744 844.118686,-451.555811 833.563163,-460.413092 820.616674,-480.128921 817.458155,-484.938939 817.287159,-485.163132 803.448870,-500.873182 803.343713,-500.983756 803.230431,-501.085991 789.835659,-512.277633 789.687710,-512.390004 789.529972,-512.488161 789.363806,-512.571258 789.190646,-512.638577 789.011987,-512.689538 788.829370,-512.723701 779.938291,-513.962805 "/>
  <edge id="180909997" from="Custom481" to="Custom482" numLanes="2" width="4.0" shape="-1206.604714,695.168397 -834.915139,807.653017 -785.322281,826.817862 -761.591246,845.404676 -732.738786,871.217095 -711.168619,900.801436 -696.186306,926.056110 -684.820255,955.997265 -677.747928,988.132028 -675.336339,1010.005567 -675.480917,1028.908662 -675.480653,1028.994490 -675.206896,1048.817437 -677.377654,1070.452978 -680.954086,1087.045160 -686.541572,1103.339097 -686.582150,1103.464084 -700.506624,1148.880280 -700.544131,1149.010436 -709.915910,1183.731530 -729.120256,1254.863902 "/>
  <edge id="189145647" from="459157601" to="3003111803" numLanes="1" width="4.0" shape="711.694428,629.227061 725.675912,611.672467 734.724646,603.101286 "/>
  <edge id="264995259" from="Custom483" to="459722771" numLanes="4" width="3.5" shape="-142.372031,1265.203700 -158.304599,1249.640188 -158.467659,1249.485935 -218.907392,1194.119894 -218.923535,1194.105153 -285.311352,1133.670579 -285.472132,1133.528659 -348.433055,1079.646518 -348.471836,1079.613573 -403.342605,1033.341769 "/>
  <edge id="282349947" from="2862774359" to="462751958" numLanes="1" width="4.0" shape="40.977074,1071.058017 37.452167,1079.843683 "/>
  <edge id="282349949" from="443697174" to="2862774359" numLanes="1" width="4.0" shape="10.113681,1135.220441 13.152942,1127.858748 23.520821,1107.096573 24.083703,1105.969374 24.101525,1105.932758 28.934653,1095.740096 34.587427,1083.818867 40.936457,1070.564171 "/>
  <edge id="296523229" from="3003111763" to="3003111767" numLanes="1" width="4.0" shape="310.089900,-264.440452 297.544736,-249.839654 293.973973,-249.874770 293.767196,-249.866095 293.562422,-249.836098 293.361845,-249.785100 293.167611,-249.713647 292.981802,-249.622505 292.806406,-249.512648 292.643302,-249.385255 292.494236,-249.241687 292.360805,-249.083484 265.513555,-213.686755 265.405097,-213.528538 236.352267,-166.454358 "/>
  <edge id="296523235" from="3003111800" to="3003111801" numLanes="1" width="4.0" shape="95.762363,-403.396627 63.296238,-337.013155 "/>
  <edge id="296523238" from="3003111807" to="3003111808" numLanes="1" width="4.0" shape="655.360584,964.733911 720.561379,993.403363 "/>
  <edge id="296523239" from="3003111809" to="3003111813" numLanes="1" width="4.0" shape="36.554655,1097.415107 98.962830,1126.424145 102.731367,1130.711507 103.464104,1136.489415 57.902814,1187.112051 "/>
  <edge id="358950570" from="3637777913" to="Custom484" numLanes="1" width="4.0" shape="444.377930,884.580211 401.483909,862.551956 "/>
  <edge id="366575196" from="3705745350" to="3705745349" numLanes="1" width="4.0" shape="-19.557639,-583.758375 47.290691,-683.924619 "/>
  <edge id="366575197" from="3705745349" to="Custom485" numLanes="1" width="4.0" shape="44.826056,-683.202275 52.015142,-680.059665 82.505904,-665.020959 98.642418,-655.801403 100.517591,-651.941237 98.404029,-641.995547 93.502753,-629.355348 "/>
  <edge id="367301572" from="457724314" to="3712423250" numLanes="1" width="4.0" shape="-236.742706,-257.737496 -231.662135,-251.811919 -231.512290,-251.655208 -231.346361,-251.515639 -231.166299,-251.394852 -230.974220,-251.294267 -214.240711,-243.657017 -214.064802,-243.586598 -199.986109,-238.710888 -199.267951,-238.151384 -199.339628,-237.243829 -205.302033,-223.422750 -205.954333,-222.697904 -206.922335,-222.815671 -246.716855,-241.869814 "/>
  <edge id="394941797" from="459157651" to="3003111805" numLanes="1" width="4.0" shape="715.229237,657.737104 706.980583,674.686401 "/>
  <edge id="404933423" from="4071797686" to="Custom486" numLanes="1" width="4.0" shape="-780.933104,860.181916 -783.116053,859.796797 "/>
  <edge id="490201751" from="Custom487" to="459166888" numLanes="2" width="3.5" shape="1270.040489,55.360078 1242.783405,22.039973 1242.570891,21.803044 1240.585445,19.782388 1199.595974,-22.788397 1174.069901,-49.840990 1140.509534,-86.472331 1114.369265,-114.986942 1066.188060,-170.679712 1066.128531,-170.746766 1061.368796,-175.971818 1047.417240,-191.308314 1019.053246,-222.453751 1014.065725,-227.959443 948.243385,-300.589230 941.410069,-308.129832 914.317809,-338.027832 914.048797,-338.294212 913.752588,-338.529977 913.432647,-338.732370 893.319607,-349.980983 893.006038,-350.136309 892.678527,-350.259548 892.340346,-350.349467 891.994876,-350.405167 891.645571,-350.426092 864.883013,-350.688968 864.539934,-350.675497 864.199826,-350.628475 863.865961,-350.548356 840.604140,-343.743557 840.290918,-343.635592 839.989309,-343.498495 839.702013,-343.333494 839.431606,-343.142068 839.180510,-342.925931 822.370785,-327.010979 822.101996,-326.726347 821.866676,-326.413477 821.667769,-326.076285 800.775121,-285.649374 "/>
  <edge id="630204699" from="Custom488" to="26978163" numLanes="1" width="4.0" shape="-783.129449,1192.726505 -772.061725,1083.722521 "/>
  <edge id="631676619" from="5965042016" to="5965042015" numLanes="1" width="4.0" shape="233.647349,163.448647 233.480851,164.230871 "/>
  <edge id="631676622" from="459097087" to="459096682" numLanes="1" width="4.0" shape="251.692605,-148.727082 217.543536,-102.512104 "/>
  <edge id="631676623" from="98409736" to="98409737" numLanes="1" width="4.0" shape="-210.282161,322.047336 -229.983674,308.301461 "/>
  <edge id="-631676623" to="98409736" from="98409737" numLanes="1" width="4.0" shape="-229.983674,308.301461 -210.282161,322.047336 "/>
  <edge id="631676625" from="459148316" to="5965042009" numLanes="1" width="4.0" shape="336.814415,233.355040 264.012727,205.797036 "/>
  <edge id="631676626" from="5965042015" to="5965042009" numLanes="1" width="4.0" shape="234.599991,176.082806 236.169282,181.297641 236.224492,181.456554 236.292862,181.610265 236.373908,181.757686 240.432288,188.456068 240.525701,188.596519 240.630616,188.728599 246.933982,196.011048 247.103538,196.184470 251.391690,200.068573 "/>
  <edge id="631676627" from="459148312" to="5965042016" numLanes="1" width="4.0" shape="223.163264,178.888833 233.061356,163.210216 "/>
  <edge id="631676628" from="5965042015" to="459148312" numLanes="1" width="4.0" shape="229.222169,173.260910 227.112220,175.950241 223.332827,179.038869 "/>
  <edge id="631676629" from="5965042009" to="459148312" numLanes="1" width="4.0" shape="250.965908,200.759158 219.614553,188.634932 "/>
  <edge id="631676633" from="5965042019" to="457724326" numLanes="1" width="4.0" shape="88.402637,-179.644760 139.908183,-284.599982 143.471276,-286.738299 "/>
  <edge id="631676634" from="457724326" to="459096651" numLanes="1" width="4.0" shape="144.827796,-285.736888 143.930708,-282.095619 93.162101,-176.810425 "/>
  <edge id="631676635" from="5965042019" to="459096651" numLanes="1" width="4.0" shape="87.390557,-173.257984 88.757317,-172.508466 "/>
  <edge id="631693886" from="3051157866" to="459148195" numLanes="1" width="4.0" shape="858.366066,32.362377 797.498553,151.065927 "/>
  <edge id="631693888" from="459166944" to="459166746" numLanes="2" width="3.5" shape="691.835766,-49.016690 653.564930,28.671079 644.048951,40.488150 "/>
  <edge id="631693894" from="459148279" to="459148274" numLanes="1" width="4.0" shape="758.295876,-209.914540 761.721020,-205.651792 "/>
  <edge id="682774110" from="Custom489" to="6394796499" numLanes="1" width="4.0" shape="-866.286287,458.013974 -838.871329,464.125113 -838.155232,465.463485 -835.994667,495.563440 -831.744923,568.224581 "/>
  <edge id="714070952" from="459157622" to="122782374" numLanes="1" width="4.0" shape="500.931541,773.457624 485.381072,808.950430 "/>
  <edge id="753243902" from="Custom490" to="459166888" numLanes="1" width="4.0" shape="920.218527,-288.735554 911.842501,-290.463933 900.672181,-302.597367 900.532444,-302.734957 900.379903,-302.858201 900.216026,-302.965913 900.042388,-303.057059 899.860658,-303.130760 899.672583,-303.186310 873.457823,-309.550077 873.261228,-309.587498 873.061876,-309.605085 872.861766,-309.602661 872.662899,-309.580250 872.467267,-309.538078 872.276830,-309.476565 847.459290,-300.064872 847.257659,-299.975396 847.067108,-299.864258 846.889955,-299.732812 846.728356,-299.582655 833.452066,-285.806089 829.917247,-283.398026 824.988402,-280.040297 806.554813,-282.017120 "/>
  <edge id="753243906" from="7038068048" to="Custom491" numLanes="1" width="4.0" shape="864.168697,-160.414596 889.582239,-181.779011 "/>
  <edge id="753243907" from="7038068048" to="7038068056" numLanes="1" width="4.0" shape="858.551667,-163.660068 850.154235,-172.652805 "/>
  <edge id="753243908" from="7038068056" to="7038068060" numLanes="1" width="4.0" shape="841.491910,-174.092288 824.193674,-164.859566 813.997771,-171.213744 796.466755,-190.223192 789.152148,-198.491900 "/>
  <edge id="753243909" from="7038068060" to="7038068051" numLanes="1" width="4.0" shape="788.944335,-202.277608 797.794415,-214.817658 801.388561,-215.418264 "/>
  <edge id="753243910" from="7038068053" to="Custom492" numLanes="1" width="4.0" shape="834.760443,-248.689966 827.636457,-260.074698 827.517467,-260.244579 827.381524,-260.401224 827.230088,-260.542947 827.064790,-260.668225 817.794593,-266.964904 817.613995,-267.074112 817.422894,-267.163681 817.223418,-267.232613 814.911713,-267.897188 814.719302,-267.942343 814.523373,-267.968286 814.325841,-267.974764 814.128633,-267.961715 813.933677,-267.929265 813.742875,-267.877732 813.558091,-267.807618 813.381130,-267.719609 813.213718,-267.614564 811.241916,-266.237015 811.075524,-266.107185 810.923740,-265.960544 810.788253,-265.798725 797.603270,-248.246957 "/>
  <edge id="753243911" from="7038068060" to="7038068061" numLanes="1" width="4.0" shape="780.996962,-198.176600 778.607002,-195.012859 "/>
  <edge id="753243913" from="7038068056" to="7038068054" numLanes="1" width="4.0" shape="850.270175,-175.412842 871.068058,-194.238040 871.217669,-194.388658 871.350473,-194.554286 871.464972,-194.733059 872.646977,-196.814091 872.737183,-196.993279 872.808984,-197.180603 872.861657,-197.374177 872.894674,-197.572054 872.907701,-197.772244 872.900607,-197.972732 872.873464,-198.171500 872.826545,-198.366549 872.760322,-198.555917 871.857981,-200.772583 871.767616,-200.964686 871.657398,-201.146128 871.528568,-201.314865 854.565695,-221.243453 "/>
  <edge id="753243914" from="7038068054" to="7038068053" numLanes="1" width="4.0" shape="854.654174,-221.131667 839.167419,-242.199825 "/>