<?xml version='1.0' encoding='UTF-8'?>
<edges>
  <edge id="-119097" from="113025971" to="Custom26" numLanes="3" width="3.5" shape="467.003402,195.228740 494.110302,204.298114 494.172900,204.318622 795.137959,300.833272 "/>
  <edge id="-119102" from="Custom27" to="437641745" numLanes="3" width="3.5" shape="793.462637,308.538443 610.640503,249.616052 464.113677,202.306872 "/>
  <edge id="-119155" from="Custom28" to="112685489" numLanes="3" width="3.5" shape="-865.511697,-336.957395 -852.723986,-324.816126 -852.651184,-324.748304 -813.732424,-289.174852 -813.292980,-288.814823 -759.104617,-249.117510 -738.707519,-233.770721 -738.461381,-233.596371 -716.584430,-219.025270 -716.400502,-218.908204 -674.313672,-193.333132 -659.611496,-183.810284 -659.485728,-183.731324 -640.393104,-172.117756 -639.954958,-171.878997 -615.461300,-160.004802 -615.289930,-159.925498 -598.448962,-152.496839 -598.181870,-152.387689 -570.045890,-141.782201 -569.792827,-141.694120 -543.193903,-133.190666 -399.173904,-84.252116 "/>
  <edge id="12390612" from="112664009" to="112664093" numLanes="1" width="4.0" shape="-304.324644,-30.607376 -307.909003,-30.256868 -308.074922,-30.233591 -308.238312,-30.196510 -326.286664,-25.297116 -326.471746,-25.237065 -326.650117,-25.159314 -333.557239,-21.739524 -333.795240,-21.600493 -340.776078,-16.848637 -340.955770,-16.710811 -341.118728,-16.553555 -350.678146,-6.221150 -350.820623,-6.048736 -350.942958,-5.861492 -351.043620,-5.661759 -355.126851,3.710239 -355.191293,3.878461 -355.240338,4.051799 -356.625414,9.949197 -356.658799,10.127219 -357.912472,19.017790 -357.928050,19.170383 -357.931887,19.323721 -357.852016,25.312506 -357.844349,25.462804 -357.825402,25.612099 -356.233261,35.241178 -356.190273,35.438604 -356.127584,35.630685 -356.045835,35.815461 -349.656040,48.486407 -349.558111,48.658777 -349.443599,48.820606 -349.313628,48.970304 -342.170164,56.417816 -341.992671,56.581776 -341.796701,56.723135 -332.016999,62.915346 -331.856363,63.006938 -331.687954,63.083303 -331.513213,63.143787 -331.333632,63.187874 -318.675827,65.681257 -318.475831,65.710247 -318.273930,65.718907 -318.072186,65.707148 -304.187089,64.190955 -303.987333,64.158848 -303.791844,64.106725 -303.602620,64.035117 -303.421599,63.944759 -292.425166,57.742072 "/>
  <edge id="12391897" from="112685489" to="112685553" numLanes="1" width="4.0" shape="-383.100065,-90.593309 -355.515723,-98.464001 -355.323836,-98.529438 -355.139559,-98.613966 -335.061248,-109.086637 -334.903934,-109.178024 -314.132276,-122.543893 -313.912445,-122.707688 -302.990244,-132.075670 -286.542225,-142.404789 -276.369230,-148.319298 -266.169370,-152.129801 -258.784403,-153.939328 -246.530014,-154.862553 -235.595405,-154.573703 -225.972972,-153.069740 -217.012638,-151.110122 -201.701139,-146.690688 -178.592027,-138.587624 -178.413302,-138.534175 -175.455621,-137.798014 -168.683725,-136.112504 -168.403619,-136.063615 -160.708493,-135.278692 -160.415569,-135.270393 -146.426871,-135.900329 -146.243549,-135.917064 -146.062542,-135.950585 -145.885384,-136.000605 -140.329458,-137.849338 -140.257665,-137.874756 -130.399214,-141.577713 -130.287663,-141.623496 -121.265993,-145.648072 -121.116481,-145.722401 -120.973691,-145.808942 -120.838616,-145.907091 -113.217012,-151.946985 "/>
  <edge id="12392104" from="112687141" to="112687059_1" numLanes="1" width="4.0" shape="-178.203284,-73.795431 -178.095659,-74.015880 -178.025296,-74.177760 -177.969479,-74.345213 -177.928644,-74.516935 -177.903109,-74.691589 -176.027113,-93.196350 -176.016959,-93.384717 -176.024596,-93.573204 -176.049958,-93.760132 -178.732384,-108.332974 -178.781998,-108.539949 -178.853325,-108.740480 -178.945558,-108.932295 -184.843176,-119.690935 -184.972733,-119.896557 -185.126273,-120.084947 -190.983561,-126.440477 -191.078597,-126.536840 -198.120261,-133.209360 -198.274491,-133.341315 -198.441301,-133.456959 -198.618974,-133.555100 -211.234288,-139.709683 -211.429602,-139.792453 -222.644842,-143.858132 -222.857663,-143.922148 -226.345269,-144.763072 -226.505081,-144.794779 -226.666943,-144.813373 -240.677813,-145.846865 -240.851585,-145.852107 -247.803160,-145.759486 -248.012700,-145.745668 -252.214321,-145.245992 -252.381998,-145.218786 -265.610879,-142.491276 -265.776769,-142.449606 -265.938491,-142.393913 -271.489961,-140.212394 -271.735428,-140.096119 -278.636746,-136.232761 -278.824154,-136.113728 -283.717605,-132.609894 -283.887594,-132.473579 -284.041746,-132.319580 -290.892794,-124.685497 -291.043152,-124.496058 -291.169545,-124.289855 -295.275069,-116.581440 -295.360575,-116.399380 -295.427363,-116.209652 -297.440948,-109.416503 -297.492729,-109.197110 -299.364580,-98.634466 -299.387755,-98.458620 -299.395260,-98.281412 -299.378810,-90.184245 -299.370156,-90.002408 -299.345003,-89.822111 -299.303561,-89.644848 -299.246173,-89.472088 -294.886404,-78.105123 -294.819545,-77.950597 -294.739926,-77.802242 -294.648111,-77.661109 -283.926847,-62.607547 -283.794498,-62.441192 -279.056003,-57.095011 "/>
  <edge id="12393068" from="113177751" to="112687059" numLanes="1" width="4.0" shape="-84.078238,-145.101291 -86.637109,-139.117968 -86.704443,-138.936762 -86.753969,-138.749903 -86.785224,-138.559135 -86.797916,-138.366240 -86.989513,-127.326854 -86.980610,-127.100489 -86.946164,-126.876583 -86.886619,-126.658009 -83.933059,-117.823471 -83.851327,-117.617663 -83.747344,-117.422153 -75.889927,-104.437790 -75.823469,-104.335185 -70.879772,-97.190968 -70.780951,-97.059987 -70.671726,-96.937548 -70.552832,-96.824474 -67.832188,-94.441732 -64.499177,-90.096910 -60.340301,-82.765737 -56.157002,-71.308836 -53.231039,-60.157834 -51.693543,-46.000877 -51.632841,-41.437876 -51.622593,-41.260543 -51.596652,-41.084819 -46.291561,-13.646492 -46.243689,-13.451822 -46.176569,-13.262922 -41.166556,-1.128039 -41.095380,-0.974420 -41.011466,-0.827371 -29.609145,17.323253 -29.510012,17.466760 -29.398752,17.601084 -29.276213,17.725203 -16.479158,29.603588 "/>
  <edge id="12393070" from="112694754" to="112694835" numLanes="1" width="4.0" shape="-123.500799,-6.313666 -121.711641,-6.337482 -121.570469,-6.344356 -109.051339,-7.398374 -108.856177,-7.424533 -108.664532,-7.469756 -93.354208,-11.888592 -93.175771,-11.949337 -93.003844,-12.026611 -85.370814,-15.899570 -85.229983,-15.978326 -85.095959,-16.068178 -76.126337,-22.621067 -75.993300,-22.727229 -75.869771,-22.844317 -75.756645,-22.971484 -70.265704,-29.699925 -70.124810,-29.895554 -67.436875,-34.146391 -67.340402,-34.316913 -67.261077,-34.496056 -61.159378,-50.328303 -61.098713,-50.511635 -61.056013,-50.699963 -61.031673,-50.891531 -60.406172,-58.886307 -60.400965,-59.101840 -60.418989,-59.316682 -61.937072,-70.277861 -61.972440,-70.466269 -62.025685,-70.650425 -64.215014,-77.054830 -64.279128,-77.218502 -64.357366,-77.375911 -64.449123,-77.525843 -69.488701,-85.001554 -69.600654,-85.151909 -72.390421,-88.553403 -72.544812,-88.721158 -72.717292,-88.870251 -76.969066,-92.141368 -77.097515,-92.232374 -84.111028,-96.797816 -84.288970,-96.901024 -84.476573,-96.985409 -84.671850,-97.050078 -100.832131,-101.493791 -101.015250,-101.535010 -101.201426,-101.558880 -101.389019,-101.565192 -111.084586,-101.436155 -111.241183,-101.427923 -111.396653,-101.407447 -121.893285,-99.603891 -122.077268,-99.563274 -122.256612,-99.505524 -124.797020,-98.553239 "/>
  <edge id="12393840" from="113214327" to="112703313" numLanes="1" width="4.0" shape="-338.604289,109.871318 -334.436295,94.201542 -334.394780,94.006970 -334.372802,93.809236 -334.370578,93.610297 -334.388131,93.412121 -334.425285,93.216670 -338.200976,77.626856 -338.260256,77.427875 -338.339845,77.236111 -338.438886,77.053632 -345.172331,66.051111 -345.264778,65.913248 -345.368338,65.783525 -356.568144,52.890323 -360.739207,45.433351 -364.560069,37.088303 -364.843460,36.469356 -364.912349,36.100469 -370.308822,7.203403 -372.412188,-6.820358 -372.428853,-6.915685 -375.369605,-21.629238 -375.409246,-21.791842 -375.462343,-21.950563 -378.874980,-30.889816 -378.975698,-31.111945 -384.512795,-41.575783 -384.594995,-41.716871 -384.688432,-41.850784 -394.372636,-54.588680 -394.409559,-54.635767 -399.527991,-60.965802 "/>
  <edge id="37434588" from="437608877" to="437608874" numLanes="3" width="3.5" shape="-183.702400,-3.359811 -216.383060,-14.571435 -216.522349,-14.617057 -253.874701,-26.276562 "/>
  <edge id="37434590" from="437608875" to="437608876" numLanes="3" width="3.5" shape="-242.702725,-33.910802 -205.307708,-21.778034 -172.523320,-11.003573 "/>
  <edge id="37435722" from="437641745" to="437641743" numLanes="3" width="3.5" shape="464.108106,202.305078 449.004352,197.447111 409.140425,184.631155 "/>
  <edge id="37435724" from="437641744" to="113025971" numLanes="3" width="3.5" shape="411.445571,177.395114 467.064570,195.248789 "/>
  <edge id="42324498" from="112872188" to="113214327" numLanes="3" width="3.5" shape="-376.786003,182.438191 -376.034441,178.647804 -371.350437,172.811454 -371.134366,172.522409 -361.341626,158.437650 -351.238903,143.896418 "/>
  <edge id="111050965" from="Custom29" to="112872188" numLanes="5" width="3.5" shape="-579.613201,610.065311 -572.637129,595.418939 -542.534810,532.154838 -533.281153,512.720296 -520.654103,486.183554 -520.637271,486.147922 -512.801306,469.438217 -498.944812,439.894411 -479.163175,397.803561 -452.281558,340.538811 -441.340794,317.243684 -425.480905,283.455608 -421.010468,273.943051 -402.287270,241.178470 -396.622141,231.250214 -380.491869,205.058230 "/>
  <edge id="-111050965" to="Custom29" from="112872188" numLanes="1" width="3.5" shape="-380.491869,205.058230 -396.622141,231.250214 -402.287270,241.178470 -421.010468,273.943051 -425.480905,283.455608 -441.340794,317.243684 -452.281558,340.538811 -479.163175,397.803561 -498.944812,439.894411 -512.801306,469.438217 -520.637271,486.147922 -520.654103,486.183554 -533.281153,512.720296 -542.534810,532.154838 -572.637129,595.418939 -579.613201,610.065311 "/>
  <edge id="120086871" from="113214327" to="112664093" numLanes="2" width="3.5" shape="-332.673380,114.483402 -286.952351,62.502084 "/>
  <edge id="120086874" from="112662748" to="112872188" numLanes="3" width="3.5" shape="-325.979236,121.073642 -357.169728,161.676162 -376.552716,182.557272 "/>
  <edge id="138272846" from="112688157" to="112662748" numLanes="2" width="3.5" shape="-244.328909,29.703247 -247.663315,33.443668 -310.584075,103.510211 "/>
  <edge id="148882903" from="112662665" to="112662748" numLanes="1" width="4.0" shape="-45.041660,55.364444 -64.235788,59.268560 -64.368785,59.302319 -64.421499,59.315700 -64.601847,59.380393 -91.495887,70.508883 -91.662996,70.587248 -91.822169,70.680685 -91.972050,70.788397 -117.031109,90.612687 -139.505472,107.190472 -162.148601,114.718805 -190.365385,115.748448 -213.889364,111.462296 -234.718942,100.117179 -234.868094,100.043807 -235.022823,99.983074 -235.182061,99.935399 -247.901014,96.696756 -256.542376,94.496395 -256.713741,94.460666 -256.887574,94.440057 -257.062543,94.434728 -274.303828,94.664505 -274.479486,94.674586 -274.653578,94.700066 -274.824757,94.740748 -294.692431,100.396431 -294.875340,100.458187 -295.051443,100.537291 -295.219099,100.633004 -295.376746,100.744436 -305.107263,108.352450 "/>
  <edge id="334781288" from="112688244" to="437608877" numLanes="3" width="3.5" shape="-167.518868,2.188157 -183.703513,-3.360192 "/>
  <edge id="334781290" from="112685553" to="Custom30" numLanes="2" width="3.5" shape="-91.490488,-167.584077 -85.743354,-174.339096 -60.341979,-204.182294 -60.289159,-204.245856 -56.740265,-208.620532 -51.738316,-214.786368 -51.726891,-214.800527 -49.700367,-217.325310 -37.184024,-231.714449 4.147521,-279.230353 35.766602,-315.578608 35.804437,-315.622839 37.785814,-317.978558 37.827330,-318.028863 57.494220,-342.316160 79.681600,-369.720782 "/>
  <edge id="-119200_1" from="437608874" to="112664009" numLanes="3" width="3.5" shape="-253.874352,-26.276453 -276.565953,-33.361352 "/>
  <edge id="138272844_1" from="112664093" to="112687141" numLanes="2" width="3.5" shape="-265.713803,38.265959 -236.137088,0.731391 -199.889942,-39.808029 -186.478953,-54.405244 "/>
  <edge id="138272844_2" from="112687141" to="112685553" numLanes="2" width="3.5" shape="-172.917836,-69.093106 -158.645362,-84.547429 -158.494542,-84.721939 -107.797128,-147.447085 "/>
  <edge id="334781289_1" from="112685489" to="112687059_1" numLanes="3" width="3.5" shape="-385.665179,-79.894906 -282.903843,-46.904886 "/>
  <edge id="334781289_2" from="112687059_1" to="437608875" numLanes="3" width="3.5" shape="-266.734448,-41.710610 -242.703242,-33.910969 "/>
  <edge id="334781291_1" from="Custom31" to="113177751" numLanes="2" width="3.5" shape="101.108562,-375.411976 56.867148,-326.428480 56.747442,-326.288726 14.027816,-273.676041 -13.386695,-239.921958 -32.240309,-216.708469 -46.451544,-200.794076 -51.151655,-195.530675 -64.340441,-180.745286 -64.481396,-180.576919 -76.881071,-164.784748 "/>
  <edge id="37434591_2" from="112687059_3" to="437641744" numLanes="3" width="3.5" shape="105.109034,80.903132 196.126306,109.846070 330.621257,152.983079 411.249551,178.802572 "/>
  <edge id="37434591_4" from="112687059" to="112687059_3" numLanes="4" width="3.5" shape="-4.645936,45.762954 90.054064,76.262954 "/>
  <edge id="37434591_1" from="437608876" to="112694754" numLanes="3" width="3.5" shape="-172.523894,-11.003762 -162.805990,-7.808771 "/>
  <edge id="37434591_3" from="112694754" to="112687059" numLanes="3" width="3.5" shape="-126.840521,4.974104 -39.582952,34.436873 -39.575042,34.439537 -20.737134,40.766868 "/>
  <edge id="334781291_2" from="113177751" to="112694835" numLanes="2" width="3.5" shape="-89.968598,-149.940690 -130.702725,-103.989990 "/>
  <edge id="334781291_3" from="112694835" to="112688157" numLanes="2" width="3.5" shape="-145.996769,-86.699537 -166.750692,-62.121162 -166.860147,-61.984765 -169.832258,-58.085357 -182.327002,-41.692258 -223.094061,5.854713 "/>
  <edge id="-119200_2" from="112664009" to="112703313" numLanes="3" width="3.5" shape="-301.322643,-41.220112 -395.473080,-71.126633 "/>
  <edge id="-119200_3" from="112703313" to="Custom32" numLanes="3" width="3.5" shape="-408.506858,-75.318930 -436.353798,-86.001363 -436.691830,-86.117993 -464.650166,-94.710644 -552.055709,-123.846183 -593.139628,-141.348262 -613.302575,-151.189556 -672.838778,-182.362606 -707.155510,-202.215679 -730.894352,-216.938612 -765.107550,-242.138187 -808.729649,-276.954230 -829.092683,-293.838400 -874.184525,-336.703090 "/>
  <edge id="37435723_1" from="437641743" to="112662665" numLanes="3" width="3.5" shape="409.132499,184.628614 325.824525,157.991373 192.559336,115.403808 156.852826,103.357691 156.601568,103.279879 45.965318,72.031978 45.183432,71.806270 39.789115,70.249087 -17.168315,52.477549 "/>
  <edge id="37435723_2" from="112662665" to="112688244" numLanes="3" width="3.5" shape="-41.720005,44.249209 -140.055441,11.376777 "/>
</edges>
