<?xml version="1.0" encoding="UTF-8"?>

<!-- generated on Fri Jul 16 05:03:07 2021 by SUMO duarouter Version 0.30.0
<?xml version="1.0" encoding="UTF-8"?>

<configuration xmlns:xsi="http://www.w3.org/2001/XMLSchema-instance" xsi:noNamespaceSchemaLocation="http://sumo.dlr.de/xsd/duarouterConfiguration.xsd">

    <input>
        <net-file value="/home/mwfranc/CAVSITAW/Merging/worlds/LinkonMKZmyMap_6_net/sumo.net.xml"/>
        <route-files value="/home/mwfranc/CAVSITAW/Merging/worlds/LinkonMKZmyMap_6_net/sumo.flow.xml"/>
    </input>

    <output>
        <output-file value="/home/mwfranc/CAVSITAW/Merging/worlds/LinkonMKZmyMap_6_net/sumo.rou.xml"/>
    </output>

    <processing>
        <randomize-flows value="true"/>
    </processing>

    <random_number>
        <seed value="25234"/>
    </random_number>

</configuration>
-->

<routes xmlns:xsi="http://www.w3.org/2001/XMLSchema-instance" xsi:noNamespaceSchemaLocation="http://sumo.dlr.de/xsd/routes_file.xsd">
    <vType id="type1" length="1.50" minGap="0.01"/>
    <vehicle id="1.0" type="type1" depart="0.02" departLane="free" departPos="last" departSpeed="random">
        <route edges="334781289_2 37434590 37434591_1 37434591_3 37434591_4 37434591_2 37435724 -119097"/>
    </vehicle>
    <vehicle id="1.1" type="type1" depart="0.03" departLane="free" departPos="last" departSpeed="random">
        <route edges="334781289_2 37434590 37434591_1 37434591_3 37434591_4 37434591_2 37435724 -119097"/>
    </vehicle>
    <vehicle id="1.2" type="type1" depart="0.05" departLane="free" departPos="last" departSpeed="random">
        <route edges="334781289_2 37434590 37434591_1 37434591_3 37434591_4 37434591_2 37435724 -119097"/>
    </vehicle>
    <vehicle id="1.3" type="type1" depart="0.11" departLane="free" departPos="last" departSpeed="random">
        <route edges="334781289_2 37434590 37434591_1 37434591_3 37434591_4 37434591_2 37435724 -119097"/>
    </vehicle>
    <vehicle id="1.4" type="type1" depart="0.22" departLane="free" departPos="last" departSpeed="random">
        <route edges="334781289_2 37434590 37434591_1 37434591_3 37434591_4 37434591_2 37435724 -119097"/>
    </vehicle>
    <vehicle id="1.5" type="type1" depart="0.23" departLane="free" departPos="last" departSpeed="random">
        <route edges="334781289_2 37434590 37434591_1 37434591_3 37434591_4 37434591_2 37435724 -119097"/>
    </vehicle>
    <vehicle id="1.6" type="type1" depart="0.25" departLane="free" departPos="last" departSpeed="random">
        <route edges="334781289_2 37434590 37434591_1 37434591_3 37434591_4 37434591_2 37435724 -119097"/>
    </vehicle>
    <vehicle id="1.7" type="type1" depart="0.36" departLane="free" departPos="last" departSpeed="random">
        <route edges="334781289_2 37434590 37434591_1 37434591_3 37434591_4 37434591_2 37435724 -119097"/>
    </vehicle>
    <vehicle id="1.8" type="type1" depart="0.39" departLane="free" departPos="last" departSpeed="random">
        <route edges="334781289_2 37434590 37434591_1 37434591_3 37434591_4 37434591_2 37435724 -119097"/>
    </vehicle>
    <vehicle id="1.9" type="type1" depart="0.79" departLane="free" departPos="last" departSpeed="random">
        <route edges="334781289_2 37434590 37434591_1 37434591_3 37434591_4 37434591_2 37435724 -119097"/>
    </vehicle>
    <vehicle id="1.10" type="type1" depart="0.81" departLane="free" departPos="last" departSpeed="random">
        <route edges="334781289_2 37434590 37434591_1 37434591_3 37434591_4 37434591_2 37435724 -119097"/>
    </vehicle>
    <vehicle id="1.11" type="type1" depart="0.81" departLane="free" departPos="last" departSpeed="random">
        <route edges="334781289_2 37434590 37434591_1 37434591_3 37434591_4 37434591_2 37435724 -119097"/>
    </vehicle>
    <vehicle id="1.12" type="type1" depart="0.99" departLane="free" departPos="last" departSpeed="random">
        <route edges="334781289_2 37434590 37434591_1 37434591_3 37434591_4 37434591_2 37435724 -119097"/>
    </vehicle>
    <vehicle id="1.13" type="type1" depart="1.01" departLane="free" departPos="last" departSpeed="random">
        <route edges="334781289_2 37434590 37434591_1 37434591_3 37434591_4 37434591_2 37435724 -119097"/>
    </vehicle>
    <vehicle id="1.14" type="type1" depart="1.10" departLane="free" departPos="last" departSpeed="random">
        <route edges="334781289_2 37434590 37434591_1 37434591_3 37434591_4 37434591_2 37435724 -119097"/>
    </vehicle>
    <vehicle id="1.15" type="type1" depart="1.15" departLane="free" departPos="last" departSpeed="random">
        <route edges="334781289_2 37434590 37434591_1 37434591_3 37434591_4 37434591_2 37435724 -119097"/>
    </vehicle>
    <vehicle id="1.16" type="type1" depart="1.27" departLane="free" departPos="last" departSpeed="random">
        <route edges="334781289_2 37434590 37434591_1 37434591_3 37434591_4 37434591_2 37435724 -119097"/>
    </vehicle>
    <vehicle id="1.17" type="type1" depart="1.36" departLane="free" departPos="last" departSpeed="random">
        <route edges="334781289_2 37434590 37434591_1 37434591_3 37434591_4 37434591_2 37435724 -119097"/>
    </vehicle>
    <vehicle id="1.18" type="type1" depart="1.61" departLane="free" departPos="last" departSpeed="random">
        <route edges="334781289_2 37434590 37434591_1 37434591_3 37434591_4 37434591_2 37435724 -119097"/>
    </vehicle>
    <vehicle id="1.19" type="type1" depart="1.71" departLane="free" departPos="last" departSpeed="random">
        <route edges="334781289_2 37434590 37434591_1 37434591_3 37434591_4 37434591_2 37435724 -119097"/>
    </vehicle>
    <vehicle id="1.20" type="type1" depart="1.72" departLane="free" departPos="last" departSpeed="random">
        <route edges="334781289_2 37434590 37434591_1 37434591_3 37434591_4 37434591_2 37435724 -119097"/>
    </vehicle>
    <vehicle id="1.21" type="type1" depart="2.38" departLane="free" departPos="last" departSpeed="random">
        <route edges="334781289_2 37434590 37434591_1 37434591_3 37434591_4 37434591_2 37435724 -119097"/>
    </vehicle>
    <vehicle id="1.22" type="type1" depart="2.48" departLane="free" departPos="last" departSpeed="random">
        <route edges="334781289_2 37434590 37434591_1 37434591_3 37434591_4 37434591_2 37435724 -119097"/>
    </vehicle>
    <vehicle id="1.23" type="type1" depart="2.49" departLane="free" departPos="last" departSpeed="random">
        <route edges="334781289_2 37434590 37434591_1 37434591_3 37434591_4 37434591_2 37435724 -119097"/>
    </vehicle>
    <vehicle id="1.24" type="type1" depart="2.54" departLane="free" departPos="last" departSpeed="random">
        <route edges="334781289_2 37434590 37434591_1 37434591_3 37434591_4 37434591_2 37435724 -119097"/>
    </vehicle>
    <vehicle id="1.25" type="type1" depart="2.73" departLane="free" departPos="last" departSpeed="random">
        <route edges="334781289_2 37434590 37434591_1 37434591_3 37434591_4 37434591_2 37435724 -119097"/>
    </vehicle>
    <vehicle id="1.26" type="type1" depart="2.79" departLane="free" departPos="last" departSpeed="random">
        <route edges="334781289_2 37434590 37434591_1 37434591_3 37434591_4 37434591_2 37435724 -119097"/>
    </vehicle>
    <vehicle id="1.27" type="type1" depart="2.83" departLane="free" departPos="last" departSpeed="random">
        <route edges="334781289_2 37434590 37434591_1 37434591_3 37434591_4 37434591_2 37435724 -119097"/>
    </vehicle>
    <vehicle id="1.28" type="type1" depart="2.85" departLane="free" departPos="last" departSpeed="random">
        <route edges="334781289_2 37434590 37434591_1 37434591_3 37434591_4 37434591_2 37435724 -119097"/>
    </vehicle>
    <vehicle id="1.29" type="type1" depart="2.89" departLane="free" departPos="last" departSpeed="random">
        <route edges="334781289_2 37434590 37434591_1 37434591_3 37434591_4 37434591_2 37435724 -119097"/>
    </vehicle>
    <vehicle id="1.30" type="type1" depart="2.95" departLane="free" departPos="last" departSpeed="random">
        <route edges="334781289_2 37434590 37434591_1 37434591_3 37434591_4 37434591_2 37435724 -119097"/>
    </vehicle>
    <vehicle id="1.31" type="type1" depart="2.97" departLane="free" departPos="last" departSpeed="random">
        <route edges="334781289_2 37434590 37434591_1 37434591_3 37434591_4 37434591_2 37435724 -119097"/>
    </vehicle>
    <vehicle id="1.32" type="type1" depart="3.01" departLane="free" departPos="last" departSpeed="random">
        <route edges="334781289_2 37434590 37434591_1 37434591_3 37434591_4 37434591_2 37435724 -119097"/>
    </vehicle>
    <vehicle id="1.33" type="type1" depart="3.09" departLane="free" departPos="last" departSpeed="random">
        <route edges="334781289_2 37434590 37434591_1 37434591_3 37434591_4 37434591_2 37435724 -119097"/>
    </vehicle>
    <vehicle id="1.34" type="type1" depart="3.09" departLane="free" departPos="last" departSpeed="random">
        <route edges="334781289_2 37434590 37434591_1 37434591_3 37434591_4 37434591_2 37435724 -119097"/>
    </vehicle>
    <vehicle id="1.35" type="type1" depart="3.14" departLane="free" departPos="last" departSpeed="random">
        <route edges="334781289_2 37434590 37434591_1 37434591_3 37434591_4 37434591_2 37435724 -119097"/>
    </vehicle>
    <vehicle id="1.36" type="type1" depart="3.15" departLane="free" departPos="last" departSpeed="random">
        <route edges="334781289_2 37434590 37434591_1 37434591_3 37434591_4 37434591_2 37435724 -119097"/>
    </vehicle>
    <vehicle id="1.37" type="type1" depart="3.22" departLane="free" departPos="last" departSpeed="random">
        <route edges="334781289_2 37434590 37434591_1 37434591_3 37434591_4 37434591_2 37435724 -119097"/>
    </vehicle>
    <vehicle id="1.38" type="type1" depart="3.31" departLane="free" departPos="last" departSpeed="random">
        <route edges="334781289_2 37434590 37434591_1 37434591_3 37434591_4 37434591_2 37435724 -119097"/>
    </vehicle>
    <vehicle id="1.39" type="type1" depart="3.33" departLane="free" departPos="last" departSpeed="random">
        <route edges="334781289_2 37434590 37434591_1 37434591_3 37434591_4 37434591_2 37435724 -119097"/>
    </vehicle>
    <vehicle id="1.40" type="type1" depart="3.37" departLane="free" departPos="last" departSpeed="random">
        <route edges="334781289_2 37434590 37434591_1 37434591_3 37434591_4 37434591_2 37435724 -119097"/>
    </vehicle>
    <vehicle id="1.41" type="type1" depart="3.41" departLane="free" departPos="last" departSpeed="random">
        <route edges="334781289_2 37434590 37434591_1 37434591_3 37434591_4 37434591_2 37435724 -119097"/>
    </vehicle>
    <vehicle id="1.42" type="type1" depart="3.47" departLane="free" departPos="last" departSpeed="random">
        <route edges="334781289_2 37434590 37434591_1 37434591_3 37434591_4 37434591_2 37435724 -119097"/>
    </vehicle>
    <vehicle id="1.43" type="type1" depart="3.67" departLane="free" departPos="last" departSpeed="random">
        <route edges="334781289_2 37434590 37434591_1 37434591_3 37434591_4 37434591_2 37435724 -119097"/>
    </vehicle>
    <vehicle id="1.44" type="type1" depart="3.74" departLane="free" departPos="last" departSpeed="random">
        <route edges="334781289_2 37434590 37434591_1 37434591_3 37434591_4 37434591_2 37435724 -119097"/>
    </vehicle>
    <vehicle id="1.45" type="type1" depart="3.75" departLane="free" departPos="last" departSpeed="random">
        <route edges="334781289_2 37434590 37434591_1 37434591_3 37434591_4 37434591_2 37435724 -119097"/>
    </vehicle>
    <vehicle id="1.46" type="type1" depart="3.89" departLane="free" departPos="last" departSpeed="random">
        <route edges="334781289_2 37434590 37434591_1 37434591_3 37434591_4 37434591_2 37435724 -119097"/>
    </vehicle>
    <vehicle id="1.47" type="type1" depart="3.93" departLane="free" departPos="last" departSpeed="random">
        <route edges="334781289_2 37434590 37434591_1 37434591_3 37434591_4 37434591_2 37435724 -119097"/>
    </vehicle>
    <vehicle id="1.48" type="type1" depart="4.17" departLane="free" departPos="last" departSpeed="random">
        <route edges="334781289_2 37434590 37434591_1 37434591_3 37434591_4 37434591_2 37435724 -119097"/>
    </vehicle>
    <vehicle id="1.49" type="type1" depart="4.24" departLane="free" departPos="last" departSpeed="random">
        <route edges="334781289_2 37434590 37434591_1 37434591_3 37434591_4 37434591_2 37435724 -119097"/>
    </vehicle>
    <vehicle id="1.50" type="type1" depart="4.31" departLane="free" departPos="last" departSpeed="random">
        <route edges="334781289_2 37434590 37434591_1 37434591_3 37434591_4 37434591_2 37435724 -119097"/>
    </vehicle>
    <vehicle id="1.51" type="type1" depart="4.35" departLane="free" departPos="last" departSpeed="random">
        <route edges="334781289_2 37434590 37434591_1 37434591_3 37434591_4 37434591_2 37435724 -119097"/>
    </vehicle>
    <vehicle id="1.52" type="type1" depart="4.37" departLane="free" departPos="last" departSpeed="random">
        <route edges="334781289_2 37434590 37434591_1 37434591_3 37434591_4 37434591_2 37435724 -119097"/>
    </vehicle>
    <vehicle id="1.53" type="type1" depart="4.77" departLane="free" departPos="last" departSpeed="random">
        <route edges="334781289_2 37434590 37434591_1 37434591_3 37434591_4 37434591_2 37435724 -119097"/>
    </vehicle>
    <vehicle id="1.54" type="type1" depart="4.79" departLane="free" departPos="last" departSpeed="random">
        <route edges="334781289_2 37434590 37434591_1 37434591_3 37434591_4 37434591_2 37435724 -119097"/>
    </vehicle>
    <vehicle id="1.55" type="type1" depart="5.07" departLane="free" departPos="last" departSpeed="random">
        <route edges="334781289_2 37434590 37434591_1 37434591_3 37434591_4 37434591_2 37435724 -119097"/>
    </vehicle>
    <vehicle id="1.56" type="type1" depart="5.09" departLane="free" departPos="last" departSpeed="random">
        <route edges="334781289_2 37434590 37434591_1 37434591_3 37434591_4 37434591_2 37435724 -119097"/>
    </vehicle>
    <vehicle id="1.57" type="type1" depart="5.17" departLane="free" departPos="last" departSpeed="random">
        <route edges="334781289_2 37434590 37434591_1 37434591_3 37434591_4 37434591_2 37435724 -119097"/>
    </vehicle>
    <vehicle id="1.58" type="type1" depart="5.21" departLane="free" departPos="last" departSpeed="random">
        <route edges="334781289_2 37434590 37434591_1 37434591_3 37434591_4 37434591_2 37435724 -119097"/>
    </vehicle>
    <vehicle id="1.59" type="type1" depart="5.67" departLane="free" departPos="last" departSpeed="random">
        <route edges="334781289_2 37434590 37434591_1 37434591_3 37434591_4 37434591_2 37435724 -119097"/>
    </vehicle>
    <vehicle id="1.60" type="type1" depart="5.73" departLane="free" departPos="last" departSpeed="random">
        <route edges="334781289_2 37434590 37434591_1 37434591_3 37434591_4 37434591_2 37435724 -119097"/>
    </vehicle>
    <vehicle id="1.61" type="type1" depart="5.89" departLane="free" departPos="last" departSpeed="random">
        <route edges="334781289_2 37434590 37434591_1 37434591_3 37434591_4 37434591_2 37435724 -119097"/>
    </vehicle>
    <vehicle id="1.62" type="type1" depart="5.93" departLane="free" departPos="last" departSpeed="random">
        <route edges="334781289_2 37434590 37434591_1 37434591_3 37434591_4 37434591_2 37435724 -119097"/>
    </vehicle>
    <vehicle id="1.63" type="type1" depart="5.97" departLane="free" departPos="last" departSpeed="random">
        <route edges="334781289_2 37434590 37434591_1 37434591_3 37434591_4 37434591_2 37435724 -119097"/>
    </vehicle>
    <vehicle id="1.64" type="type1" depart="5.97" departLane="free" departPos="last" departSpeed="random">
        <route edges="334781289_2 37434590 37434591_1 37434591_3 37434591_4 37434591_2 37435724 -119097"/>
    </vehicle>
    <vehicle id="1.65" type="type1" depart="6.10" departLane="free" departPos="last" departSpeed="random">
        <route edges="334781289_2 37434590 37434591_1 37434591_3 37434591_4 37434591_2 37435724 -119097"/>
    </vehicle>
    <vehicle id="1.66" type="type1" depart="6.33" departLane="free" departPos="last" departSpeed="random">
        <route edges="334781289_2 37434590 37434591_1 37434591_3 37434591_4 37434591_2 37435724 -119097"/>
    </vehicle>
    <vehicle id="1.67" type="type1" depart="6.43" departLane="free" departPos="last" departSpeed="random">
        <route edges="334781289_2 37434590 37434591_1 37434591_3 37434591_4 37434591_2 37435724 -119097"/>
    </vehicle>
    <vehicle id="1.68" type="type1" depart="6.57" departLane="free" departPos="last" departSpeed="random">
        <route edges="334781289_2 37434590 37434591_1 37434591_3 37434591_4 37434591_2 37435724 -119097"/>
    </vehicle>
    <vehicle id="1.69" type="type1" depart="6.62" departLane="free" departPos="last" departSpeed="random">
        <route edges="334781289_2 37434590 37434591_1 37434591_3 37434591_4 37434591_2 37435724 -119097"/>
    </vehicle>
    <vehicle id="1.70" type="type1" depart="6.69" departLane="free" departPos="last" departSpeed="random">
        <route edges="334781289_2 37434590 37434591_1 37434591_3 37434591_4 37434591_2 37435724 -119097"/>
    </vehicle>
    <vehicle id="1.71" type="type1" depart="6.75" departLane="free" departPos="last" departSpeed="random">
        <route edges="334781289_2 37434590 37434591_1 37434591_3 37434591_4 37434591_2 37435724 -119097"/>
    </vehicle>
    <vehicle id="1.72" type="type1" depart="6.95" departLane="free" departPos="last" departSpeed="random">
        <route edges="334781289_2 37434590 37434591_1 37434591_3 37434591_4 37434591_2 37435724 -119097"/>
    </vehicle>
    <vehicle id="1.73" type="type1" depart="7.00" departLane="free" departPos="last" departSpeed="random">
        <route edges="334781289_2 37434590 37434591_1 37434591_3 37434591_4 37434591_2 37435724 -119097"/>
    </vehicle>
    <vehicle id="1.74" type="type1" depart="7.25" departLane="free" departPos="last" departSpeed="random">
        <route edges="334781289_2 37434590 37434591_1 37434591_3 37434591_4 37434591_2 37435724 -119097"/>
    </vehicle>
    <vehicle id="1.75" type="type1" depart="7.28" departLane="free" departPos="last" departSpeed="random">
        <route edges="334781289_2 37434590 37434591_1 37434591_3 37434591_4 37434591_2 37435724 -119097"/>
    </vehicle>
    <vehicle id="1.76" type="type1" depart="7.31" departLane="free" departPos="last" departSpeed="random">
        <route edges="334781289_2 37434590 37434591_1 37434591_3 37434591_4 37434591_2 37435724 -119097"/>
    </vehicle>
    <vehicle id="1.77" type="type1" depart="7.32" departLane="free" departPos="last" departSpeed="random">
        <route edges="334781289_2 37434590 37434591_1 37434591_3 37434591_4 37434591_2 37435724 -119097"/>
    </vehicle>
    <vehicle id="1.78" type="type1" depart="7.53" departLane="free" departPos="last" departSpeed="random">
        <route edges="334781289_2 37434590 37434591_1 37434591_3 37434591_4 37434591_2 37435724 -119097"/>
    </vehicle>
    <vehicle id="1.79" type="type1" depart="7.58" departLane="free" departPos="last" departSpeed="random">
        <route edges="334781289_2 37434590 37434591_1 37434591_3 37434591_4 37434591_2 37435724 -119097"/>
    </vehicle>
    <vehicle id="1.80" type="type1" depart="7.72" departLane="free" departPos="last" departSpeed="random">
        <route edges="334781289_2 37434590 37434591_1 37434591_3 37434591_4 37434591_2 37435724 -119097"/>
    </vehicle>
    <vehicle id="1.81" type="type1" depart="7.78" departLane="free" departPos="last" departSpeed="random">
        <route edges="334781289_2 37434590 37434591_1 37434591_3 37434591_4 37434591_2 37435724 -119097"/>
    </vehicle>
    <vehicle id="1.82" type="type1" depart="7.81" departLane="free" departPos="last" departSpeed="random">
        <route edges="334781289_2 37434590 37434591_1 37434591_3 37434591_4 37434591_2 37435724 -119097"/>
    </vehicle>
    <vehicle id="1.83" type="type1" depart="7.93" departLane="free" departPos="last" departSpeed="random">
        <route edges="334781289_2 37434590 37434591_1 37434591_3 37434591_4 37434591_2 37435724 -119097"/>
    </vehicle>
    <vehicle id="1.84" type="type1" depart="8.03" departLane="free" departPos="last" departSpeed="random">
        <route edges="334781289_2 37434590 37434591_1 37434591_3 37434591_4 37434591_2 37435724 -119097"/>
    </vehicle>
    <vehicle id="1.85" type="type1" depart="8.53" departLane="free" departPos="last" departSpeed="random">
        <route edges="334781289_2 37434590 37434591_1 37434591_3 37434591_4 37434591_2 37435724 -119097"/>
    </vehicle>
    <vehicle id="1.86" type="type1" depart="8.80" departLane="free" departPos="last" departSpeed="random">
        <route edges="334781289_2 37434590 37434591_1 37434591_3 37434591_4 37434591_2 37435724 -119097"/>
    </vehicle>
    <vehicle id="1.87" type="type1" depart="8.83" departLane="free" departPos="last" departSpeed="random">
        <route edges="334781289_2 37434590 37434591_1 37434591_3 37434591_4 37434591_2 37435724 -119097"/>
    </vehicle>
    <vehicle id="1.88" type="type1" depart="8.85" departLane="free" departPos="last" departSpeed="random">
        <route edges="334781289_2 37434590 37434591_1 37434591_3 37434591_4 37434591_2 37435724 -119097"/>
    </vehicle>
    <vehicle id="1.89" type="type1" depart="8.86" departLane="free" departPos="last" departSpeed="random">
        <route edges="334781289_2 37434590 37434591_1 37434591_3 37434591_4 37434591_2 37435724 -119097"/>
    </vehicle>
    <vehicle id="1.90" type="type1" depart="8.96" departLane="free" departPos="last" departSpeed="random">
        <route edges="334781289_2 37434590 37434591_1 37434591_3 37434591_4 37434591_2 37435724 -119097"/>
    </vehicle>
    <vehicle id="1.91" type="type1" depart="9.02" departLane="free" departPos="last" departSpeed="random">
        <route edges="334781289_2 37434590 37434591_1 37434591_3 37434591_4 37434591_2 37435724 -119097"/>
    </vehicle>
    <vehicle id="1.92" type="type1" depart="9.02" departLane="free" departPos="last" departSpeed="random">
        <route edges="334781289_2 37434590 37434591_1 37434591_3 37434591_4 37434591_2 37435724 -119097"/>
    </vehicle>
    <vehicle id="1.93" type="type1" depart="9.25" departLane="free" departPos="last" departSpeed="random">
        <route edges="334781289_2 37434590 37434591_1 37434591_3 37434591_4 37434591_2 37435724 -119097"/>
    </vehicle>
    <vehicle id="1.94" type="type1" depart="9.29" departLane="free" departPos="last" departSpeed="random">
        <route edges="334781289_2 37434590 37434591_1 37434591_3 37434591_4 37434591_2 37435724 -119097"/>
    </vehicle>
    <vehicle id="1.95" type="type1" depart="9.34" departLane="free" departPos="last" departSpeed="random">
        <route edges="334781289_2 37434590 37434591_1 37434591_3 37434591_4 37434591_2 37435724 -119097"/>
    </vehicle>
    <vehicle id="1.96" type="type1" depart="9.53" departLane="free" departPos="last" departSpeed="random">
        <route edges="334781289_2 37434590 37434591_1 37434591_3 37434591_4 37434591_2 37435724 -119097"/>
    </vehicle>
    <vehicle id="1.97" type="type1" depart="9.57" departLane="free" departPos="last" departSpeed="random">
        <route edges="334781289_2 37434590 37434591_1 37434591_3 37434591_4 37434591_2 37435724 -119097"/>
    </vehicle>
    <vehicle id="1.98" type="type1" depart="9.59" departLane="free" departPos="last" departSpeed="random">
        <route edges="334781289_2 37434590 37434591_1 37434591_3 37434591_4 37434591_2 37435724 -119097"/>
    </vehicle>
    <vehicle id="1.99" type="type1" depart="9.67" departLane="free" departPos="last" departSpeed="random">
        <route edges="334781289_2 37434590 37434591_1 37434591_3 37434591_4 37434591_2 37435724 -119097"/>
    </vehicle>
    <vehicle id="1.100" type="type1" depart="9.68" departLane="free" departPos="last" departSpeed="random">
        <route edges="334781289_2 37434590 37434591_1 37434591_3 37434591_4 37434591_2 37435724 -119097"/>
    </vehicle>
    <vehicle id="1.101" type="type1" depart="9.68" departLane="free" departPos="last" departSpeed="random">
        <route edges="334781289_2 37434590 37434591_1 37434591_3 37434591_4 37434591_2 37435724 -119097"/>
    </vehicle>
    <vehicle id="1.102" type="type1" depart="9.83" departLane="free" departPos="last" departSpeed="random">
        <route edges="334781289_2 37434590 37434591_1 37434591_3 37434591_4 37434591_2 37435724 -119097"/>
    </vehicle>
    <vehicle id="1.103" type="type1" depart="9.87" departLane="free" departPos="last" departSpeed="random">
        <route edges="334781289_2 37434590 37434591_1 37434591_3 37434591_4 37434591_2 37435724 -119097"/>
    </vehicle>
    <vehicle id="1.104" type="type1" depart="9.91" departLane="free" departPos="last" departSpeed="random">
        <route edges="334781289_2 37434590 37434591_1 37434591_3 37434591_4 37434591_2 37435724 -119097"/>
    </vehicle>
    <vehicle id="1.105" type="type1" depart="10.43" departLane="free" departPos="last" departSpeed="random">
        <route edges="334781289_2 37434590 37434591_1 37434591_3 37434591_4 37434591_2 37435724 -119097"/>
    </vehicle>
    <vehicle id="1.106" type="type1" depart="10.48" departLane="free" departPos="last" departSpeed="random">
        <route edges="334781289_2 37434590 37434591_1 37434591_3 37434591_4 37434591_2 37435724 -119097"/>
    </vehicle>
    <vehicle id="1.107" type="type1" depart="10.53" departLane="free" departPos="last" departSpeed="random">
        <route edges="334781289_2 37434590 37434591_1 37434591_3 37434591_4 37434591_2 37435724 -119097"/>
    </vehicle>
    <vehicle id="1.108" type="type1" depart="10.65" departLane="free" departPos="last" departSpeed="random">
        <route edges="334781289_2 37434590 37434591_1 37434591_3 37434591_4 37434591_2 37435724 -119097"/>
    </vehicle>
    <vehicle id="1.109" type="type1" depart="11.13" departLane="free" departPos="last" departSpeed="random">
        <route edges="334781289_2 37434590 37434591_1 37434591_3 37434591_4 37434591_2 37435724 -119097"/>
    </vehicle>
    <vehicle id="1.110" type="type1" depart="11.15" departLane="free" departPos="last" departSpeed="random">
        <route edges="334781289_2 37434590 37434591_1 37434591_3 37434591_4 37434591_2 37435724 -119097"/>
    </vehicle>
    <vehicle id="1.111" type="type1" depart="11.18" departLane="free" departPos="last" departSpeed="random">
        <route edges="334781289_2 37434590 37434591_1 37434591_3 37434591_4 37434591_2 37435724 -119097"/>
    </vehicle>
    <vehicle id="1.112" type="type1" depart="11.20" departLane="free" departPos="last" departSpeed="random">
        <route edges="334781289_2 37434590 37434591_1 37434591_3 37434591_4 37434591_2 37435724 -119097"/>
    </vehicle>
    <vehicle id="1.113" type="type1" depart="11.21" departLane="free" departPos="last" departSpeed="random">
        <route edges="334781289_2 37434590 37434591_1 37434591_3 37434591_4 37434591_2 37435724 -119097"/>
    </vehicle>
    <vehicle id="1.114" type="type1" depart="11.31" departLane="free" departPos="last" departSpeed="random">
        <route edges="334781289_2 37434590 37434591_1 37434591_3 37434591_4 37434591_2 37435724 -119097"/>
    </vehicle>
    <vehicle id="1.115" type="type1" depart="11.46" departLane="free" departPos="last" departSpeed="random">
        <route edges="334781289_2 37434590 37434591_1 37434591_3 37434591_4 37434591_2 37435724 -119097"/>
    </vehicle>
    <vehicle id="1.116" type="type1" depart="11.53" departLane="free" departPos="last" departSpeed="random">
        <route edges="334781289_2 37434590 37434591_1 37434591_3 37434591_4 37434591_2 37435724 -119097"/>
    </vehicle>
    <vehicle id="1.117" type="type1" depart="11.59" departLane="free" departPos="last" departSpeed="random">
        <route edges="334781289_2 37434590 37434591_1 37434591_3 37434591_4 37434591_2 37435724 -119097"/>
    </vehicle>
    <vehicle id="1.118" type="type1" depart="11.90" departLane="free" departPos="last" departSpeed="random">
        <route edges="334781289_2 37434590 37434591_1 37434591_3 37434591_4 37434591_2 37435724 -119097"/>
    </vehicle>
    <vehicle id="1.119" type="type1" depart="11.99" departLane="free" departPos="last" departSpeed="random">
        <route edges="334781289_2 37434590 37434591_1 37434591_3 37434591_4 37434591_2 37435724 -119097"/>
    </vehicle>
    <vehicle id="1.120" type="type1" depart="12.06" departLane="free" departPos="last" departSpeed="random">
        <route edges="334781289_2 37434590 37434591_1 37434591_3 37434591_4 37434591_2 37435724 -119097"/>
    </vehicle>
    <vehicle id="1.121" type="type1" depart="12.16" departLane="free" departPos="last" departSpeed="random">
        <route edges="334781289_2 37434590 37434591_1 37434591_3 37434591_4 37434591_2 37435724 -119097"/>
    </vehicle>
    <vehicle id="1.122" type="type1" depart="12.18" departLane="free" departPos="last" departSpeed="random">
        <route edges="334781289_2 37434590 37434591_1 37434591_3 37434591_4 37434591_2 37435724 -119097"/>
    </vehicle>
    <vehicle id="1.123" type="type1" depart="12.47" departLane="free" departPos="last" departSpeed="random">
        <route edges="334781289_2 37434590 37434591_1 37434591_3 37434591_4 37434591_2 37435724 -119097"/>
    </vehicle>
    <vehicle id="1.124" type="type1" depart="12.47" departLane="free" departPos="last" departSpeed="random">
        <route edges="334781289_2 37434590 37434591_1 37434591_3 37434591_4 37434591_2 37435724 -119097"/>
    </vehicle>
    <vehicle id="1.125" type="type1" depart="12.65" departLane="free" departPos="last" departSpeed="random">
        <route edges="334781289_2 37434590 37434591_1 37434591_3 37434591_4 37434591_2 37435724 -119097"/>
    </vehicle>