<?xml version='1.0' encoding='UTF-8'?>
<nodes>
  <node id="100635954" x="-423.299114" y="-18.688977" shape="-424.356775,-23.897754 -417.973031,-20.594979 -421.393112,-13.362894 -422.241738,-13.480143 -428.321493,-16.949520 -427.770374,-18.600475 -426.052671,-22.212884 -424.356775,-23.897754 -424.356775,-23.897754"/>
  <node id="100636147" x="-855.456447" y="-604.519761" shape="-857.732139,-609.323013 -850.471868,-606.364746 -852.966120,-599.824202 -855.384347,-600.048206 -858.990431,-601.779148 -860.519275,-602.901808 -857.732139,-609.323013 -857.732139,-609.323013"/>
  <node id="103236846" x="-379.016944" y="-1191.361448" shape="-378.685200,-1195.821263 -375.250046,-1193.771941 -374.568055,-1191.816850 -375.983289,-1188.075578 -378.917478,-1186.890418 -382.534088,-1188.599257 -383.470452,-1190.953689 -382.015256,-1194.679599 -378.685200,-1195.821263 -378.685200,-1195.821263"/>
  <node id="103236847" x="-650.479478" y="-1297.38984" shape="-650.048013,-1301.841114 -646.659580,-1299.715432 -646.025926,-1297.797118 -647.481524,-1294.071365 -650.906089,-1292.938098 -654.296838,-1295.060084 -654.934084,-1297.785426 -652.835773,-1301.190876 -650.048013,-1301.841114 -650.048013,-1301.841114"/>
  <node id="103236850" x="-952.335224" y="-1095.273635" shape="-951.931470,-1099.727508 -948.529873,-1097.622956 -947.917267,-1094.579622 -950.239660,-1091.322861 -952.681904,-1090.814957 -956.110175,-1092.875772 -956.787714,-1095.692364 -954.671735,-1099.086864 -951.931470,-1099.727508 -951.931470,-1099.727508"/>
  <node id="103236853" x="-1102.521437" y="-1172.131052" shape="-1100.708962,-1179.181934 -1097.257549,-1177.160116 -1096.323321,-1175.949868 -1095.241398,-1172.098966 -1101.415529,-1170.187610 -1101.980476,-1170.205601 -1104.739735,-1172.412391 -1100.708962,-1179.181934 -1100.708962,-1179.181934"/>
  <node id="103237004" x="96.343414" y="-928.29598" shape="121.525439,-985.963934 128.550055,-983.683093 133.589989,-980.427474 98.184120,-922.563459 90.434620,-927.140057 121.525439,-985.963934 121.525439,-985.963934"/>
  <node id="104708750" x="710.56668" y="-672.913985" shape="714.306368,-694.685864 718.171138,-693.654578 719.329088,-691.037929 713.873729,-671.767937 713.546287,-670.823066 706.932189,-673.115162 714.306368,-694.685864 714.306368,-694.685864"/>
  <node id="104708751" x="688.914281" y="-619.404907" shape="693.670273,-647.070419 697.554143,-646.113572 704.050168,-643.420960 695.514973,-617.074486 694.183304,-613.302662 680.981920,-617.963504 682.313589,-621.735328 693.670273,-647.070419 693.670273,-647.070419"/>
  <node id="104712215" x="527.015223" y="-17.854587" shape="528.709340,-21.478117 529.615223,-21.054587 526.226988,-13.807528 525.321106,-14.231057 524.856396,-17.271951 528.709340,-21.478117 528.709340,-21.478117"/>
  <node id="105012598" x="768.722989" y="586.785159" shape="766.954836,581.411740 772.240080,584.022901 774.069704,584.937827 770.570321,592.131874 765.194665,589.533055 763.349570,588.553312 766.954836,581.411740 766.954836,581.411740"/>
  <node id="105012601" x="619.588929" y="899.387706" shape="618.208657,893.901829 623.083758,896.597335 625.033173,897.851410 621.125225,904.831950 615.982763,902.032619 614.103052,900.767978 618.208657,893.901829 618.208657,893.901829"/>
  <node id="105012870" x="907.586158" y="685.814336" shape="907.382765,677.754644 911.007959,683.742797 908.276787,687.941078 904.164357,687.885875 900.356134,686.666834 900.539163,681.897723 907.382765,677.754644 907.382765,677.754644"/>
  <node id="105013009" x="1043.339307" y="566.876148"/>
  <node id="105013240" x="1185.700562" y="579.283045" shape="1184.245662,575.054184 1188.210711,575.581809 1189.894080,577.729209 1189.459741,581.705558 1187.234040,583.484050 1183.259845,583.030431 1181.517820,580.865659 1181.924826,576.886419 1184.245662,575.054184 1184.245662,575.054184"/>
  <node id="105013688" x="1219.288784" y="311.276075" shape="1216.491847,307.786498 1220.125227,309.459385 1220.146133,309.469157 1223.759969,311.183855 1222.045271,314.797691 1220.780527,315.492081 1216.811025,314.999072 1214.818961,311.419878 1216.491847,307.786498 1216.491847,307.786498"/>
  <node id="105014609" x="725.708505" y="76.010606" shape="723.787357,70.689968 725.629029,71.539176 729.237963,73.264167 730.180445,75.968722 728.425176,79.563027 725.784903,80.482089 720.387867,77.931754 723.787357,70.689968 723.787357,70.689968"/>
  <node id="105014613" x="850.328079" y="-183.603658" shape="850.249132,-188.075097 853.857862,-186.349679 854.799111,-183.702998 853.090171,-180.086436 850.380250,-179.131826 846.781916,-180.878822 845.856789,-183.516682 847.575724,-187.128504 850.249132,-188.075097 850.249132,-188.075097"/>
  <node id="105014623" x="1071.089679" y="240.723722" shape="1069.179720,235.399057 1076.414344,238.813763 1075.561372,240.660753 1073.049199,246.030348 1065.783053,242.683242 1066.618599,240.820879 1069.179720,235.399057 1069.179720,235.399057"/>
  <node id="105015362" x="-116.295396" y="-309.057941" shape="-115.742990,-316.864659 -109.718578,-313.300047 -107.739694,-310.891641 -112.139447,-301.357903 -116.679622,-301.241140 -122.779372,-304.675242 -124.087407,-308.326806 -121.555511,-314.852869 -115.742990,-316.864659 -115.742990,-316.864659"/>
  <node id="105015364" x="-181.291765" y="-194.278123" shape="-183.464866,-197.536220 -180.331040,-196.032263 -176.822760,-194.110813 -178.744210,-190.602533 -180.253614,-189.065423 -186.320527,-192.557208 -183.464866,-197.536220 -183.464866,-197.536220"/>
  <node id="105015369" x="72.821135" y="-55.121339" shape="72.211766,-59.551764 75.999854,-58.267089 73.539377,-50.707256 69.720814,-51.898295 68.352121,-55.288409 70.273383,-58.796793 72.211766,-59.551764 72.211766,-59.551764"/>
  <node id="105015370" x="127.280473" y="-213.857918" shape="125.330767,-220.163562 129.086608,-218.787459 129.246438,-218.725924 132.955395,-217.228046 129.023465,-207.492034 121.718497,-210.304480 125.330767,-220.163562 125.330767,-220.163562"/>
  <node id="105015830" x="-231.172919" y="-353.637474" shape="-230.856680,-361.457320 -224.727299,-358.076391 -223.380808,-354.367545 -225.913596,-347.841827 -231.718577,-345.830281 -237.746068,-349.389685 -238.976741,-353.045566 -236.328739,-359.525387 -230.856680,-361.457320 -230.856680,-361.457320"/>
  <node id="105018406" x="-888.861862" y="280.318664" shape="-888.884001,272.256437 -885.405592,274.231448 -883.668774,279.186480 -887.050350,285.315505 -892.318132,286.405880 -895.796541,284.430868 -888.884001,272.256437 -888.884001,272.256437"/>
  <node id="110072267" x="723.826326" y="-1986.486968" shape="727.993070,-2011.384523 734.670178,-2009.283040 738.325849,-2005.020768 727.835413,-1984.443143 727.779746,-1984.337440 727.302073,-1983.458902 719.395233,-1987.757959 727.993070,-2011.384523 727.993070,-2011.384523"/>
  <node id="110087063" x="822.262687" y="-2179.562221" shape="821.430069,-2187.842121 829.449632,-2183.757196 832.696725,-2180.437503 832.362892,-2173.594555 827.554542,-2171.221237 816.436847,-2178.042489 821.430069,-2187.842121 821.430069,-2187.842121"/>
  <node id="110101487" x="1245.240206" y="-2174.224434" shape="1243.904539,-2179.042732 1252.618354,-2172.336859 1248.961719,-2167.579862 1246.862907,-2166.327166 1239.260239,-2168.817033 1240.240653,-2174.291317 1243.904539,-2179.042732 1243.904539,-2179.042732"/>
  <node id="110126712" x="-27.372225" y="770.809191" shape="-29.159972,765.803798 -27.123142,766.343997 -23.650620,768.329341 -22.167775,769.730444 -25.612168,775.824388 -32.570634,771.916684 -29.159972,765.803798 -29.159972,765.803798"/>
  <node id="110150898" x="1100.71793" y="385.52656" shape="1097.002794,383.037028 1104.930725,384.025773 1104.446236,387.996324 1102.213140,389.741337 1098.243234,389.251594 1096.497223,387.004949 1097.002794,383.037028 1097.002794,383.037028"/>
  <node id="110153804" x="1092.225112" y="89.657114" shape="1090.326702,84.328321 1092.204219,85.185027 1097.551998,87.753360 1094.128866,94.984000 1090.513546,93.272434 1086.896319,91.555524 1090.326702,84.328321 1090.326702,84.328321"/>
  <node id="110159252" x="1199.159809" y="-235.59662" shape="1196.482874,-239.179080 1203.631939,-235.589215 1201.837163,-232.014473 1199.292964,-231.126467 1195.663579,-232.808004 1194.687680,-235.604549 1196.482874,-239.179080 1196.482874,-239.179080"/>
  <node id="110159264" x="1154.881131" y="-142.597062" shape="1154.895072,-147.069176 1158.467187,-145.269178 1159.351632,-142.717964 1157.660153,-139.093202 1154.035391,-140.784681 1154.024747,-140.789686 1150.409996,-142.502453 1152.122763,-146.117205 1154.895072,-147.069176 1154.895072,-147.069176"/>
  <node id="110160962" x="844.367386" y="-26.169731" shape="842.652730,-31.560460 849.639524,-28.220234 846.417889,-20.897593 844.374849,-21.697601 840.794160,-23.480483 838.976657,-24.455075 842.652730,-31.560460 842.652730,-31.560460"/>
  <node id="110160969" x="602.598554" y="-143.419489" shape="600.614819,-148.717111 602.581618,-147.891593 607.928116,-145.315741 604.494806,-138.089927 597.300932,-141.435754 600.614819,-148.717111 600.614819,-148.717111"/>
  <node id="110161301" x="896.009345" y="1549.162115" shape="892.538659,1542.841170 896.523921,1543.184221 896.564153,1543.187821 900.547015,1543.557693 899.437400,1555.506281 891.509506,1554.796958 892.538659,1542.841170 892.538659,1542.841170"/>
  <node id="110161302" x="887.808223" y="1603.459997" shape="885.979998,1602.172521 889.428004,1602.286834 889.935139,1602.769903 890.014585,1603.096725 889.785793,1603.758688 886.775024,1605.443050 886.188442,1604.633160 885.830653,1603.161306 885.979998,1602.172521 885.979998,1602.172521"/>
  <node id="110167073" x="918.011946" y="562.957827" shape="916.154349,557.614669 923.355104,561.100230 921.713961,565.466827 919.808598,568.321785 912.647988,564.754479 916.154349,557.614669 916.154349,557.614669"/>
  <node id="110172009" x="72.695724" y="581.957971" shape="72.901671,573.898344 79.635473,577.854328 72.707913,590.020220 69.231944,588.040917 69.068632,587.944974 65.647488,585.872350 72.901671,573.898344 72.901671,573.898344"/>
  <node id="110182761" x="-1196.80079" y="254.188141" shape="-1197.019470,249.721355 -1193.358569,251.333125 -1192.332676,254.377764 -1194.271620,257.876406 -1201.268913,253.998724 -1199.330130,250.499993 -1197.019470,249.721355 -1197.019470,249.721355"/>
  <node id="110197141" x="1411.119215" y="-1953.012278" shape="1413.709968,-1957.288725 1414.104581,-1953.308237 1411.407062,-1951.033100 1407.448707,-1950.457406 1406.873012,-1954.415761 1407.739237,-1956.696806 1413.709968,-1957.288725 1413.709968,-1957.288725"/>
  <node id="110227462" x="665.782209" y="-270.9923" shape="663.045712,-274.529471 670.252994,-271.102222 668.552618,-267.481626 665.799145,-266.520196 662.214687,-268.295489 661.310573,-270.925405 663.045712,-274.529471 663.045712,-274.529471"/>
  <node id="110244702" x="1120.126419" y="-1810.024276" shape="1117.960538,-1815.250073 1125.352216,-1812.190157 1123.822258,-1808.494318 1120.408817,-1805.561065 1116.725289,-1807.120431 1115.692756,-1809.438931 1116.997945,-1813.220000 1117.960538,-1815.250073 1117.960538,-1815.250073"/>
  <node id="122773409" x="-799.579359" y="-743.816889" shape="-801.918422,-748.967499 -799.613886,-748.288892 -794.303515,-745.857838 -797.538410,-738.541045 -799.532319,-739.345000 -804.729969,-741.477826 -801.918422,-748.967499 -801.918422,-748.967499"/>
  <node id="122778257" x="177.848115" y="302.476004" shape="176.019073,297.123004 180.954057,299.258377 183.138493,300.473030 179.851089,307.766382 174.800491,305.748921 172.495115,304.305046 176.019073,297.123004 176.019073,297.123004"/>
  <node id="122778749" x="1208.434519" y="398.670193" shape="1206.942776,394.454187 1210.912278,394.947196 1209.942057,402.880576 1205.970735,402.402454 1204.221724,400.170980 1204.706213,396.200429 1206.942776,394.454187 1206.942776,394.454187"/>
  <node id="122778839" x="1039.026211" y="579.027966" shape="1037.700927,574.756711 1041.648045,575.404986 1040.524997,583.241473 1036.554677,582.755099 1034.797597,580.483585 1035.324548,576.518446 1037.700927,574.756711 1037.700927,574.756711"/>
  <node id="122779003" x="795.105934" y="821.102769" shape="796.296615,813.920689 799.911196,815.633815 801.548060,817.711749 802.367146,821.626989 792.203925,830.879187 788.666996,829.010998 787.578809,827.983350 785.511441,824.559026 796.296615,813.920689 796.296615,813.920689"/>
  <node id="122779007" x="839.070001" y="728.341552" shape="839.111127,723.869605 842.672234,725.691285 843.331502,726.985230 842.711959,730.936959 839.164165,732.812696 835.549584,731.099570 837.262710,727.484989 837.289447,727.430712 839.111127,723.869605 839.111127,723.869605"/>
  <node id="122779235" x="1159.409522" y="827.682804" shape="1157.900723,823.472872 1161.872188,823.949806 1163.607724,826.141667 1163.161352,830.116683 1160.898960,831.899624 1156.929729,831.404447 1157.900723,823.472872 1157.900723,823.472872"/>
  <node id="122779699" x="1071.467627" y="1339.220313" shape="1070.312358,1334.899971 1074.230739,1335.703893 1075.603435,1337.518816 1075.310310,1341.508061 1072.612693,1343.543370 1068.696221,1342.730200 1067.363837,1340.997645 1067.583487,1337.003680 1070.312358,1334.899971 1070.312358,1334.899971"/>
  <node id="122779700" x="1090.943943" y="1244.281506" shape="1089.680413,1239.991577 1093.617768,1240.696724 1092.912621,1244.634080 1092.903175,1244.683263 1092.099662,1248.601727 1088.181197,1247.798214 1086.784284,1245.923833 1087.134286,1241.939175 1089.680413,1239.991577 1089.680413,1239.991577"/>
  <node id="122779704" x="1104.985781" y="1165.875627" shape="1101.711599,1159.450697 1105.684392,1159.916437 1109.664319,1160.388253 1108.251612,1172.304806 1100.314377,1171.369076 1101.711599,1159.450697 1101.711599,1159.450697"/>
  <node id="122779921" x="781.466269" y="1426.361243" shape="780.092700,1422.105270 784.046906,1422.708804 785.644340,1424.766338 785.249035,1428.746757 783.255863,1430.459701 779.261259,1430.251992 777.451050,1428.330510 777.481724,1424.330628 780.092700,1422.105270 780.092700,1422.105270"/>
  <node id="122780283" x="770.505129" y="1532.060611" shape="769.249098,1524.959739 775.457207,1526.818767 773.439109,1538.647853 769.496080,1537.975154 768.097363,1537.556306 764.433566,1535.951129 769.249098,1524.959739 769.249098,1524.959739"/>
  <node id="122780617" x="160.413836" y="1434.447386" shape="159.974181,1429.996914 163.710421,1431.425378 164.686703,1433.127307 164.033620,1437.073632 161.157068,1438.857330 157.331820,1437.687938 156.142070,1435.771022 156.791867,1431.824155 159.974181,1429.996914 159.974181,1429.996914"/>
  <node id="122780618" x="152.662815" y="1455.319828" shape="152.373003,1450.657096 155.894584,1452.554058 156.959220,1454.078498 156.233722,1458.012154 152.886090,1459.786387 149.223533,1458.178383 152.010220,1451.330578 152.373003,1450.657096 152.373003,1450.657096"/>
  <node id="122780621" x="94.749042" y="1586.872261" shape="94.530496,1582.405468 98.191348,1584.017348 96.579468,1587.678201 96.002024,1588.431119 90.546022,1592.816554 88.040059,1589.698839 87.589349,1588.190896 87.973420,1584.209377 94.530496,1582.405468 94.530496,1582.405468"/>
  <node id="122782374" x="-510.477172" y="-465.247061" shape="-513.063763,-469.890287 -510.703850,-469.713448 -507.040069,-468.108236 -505.445786,-466.960291 -508.111220,-460.487621 -510.534245,-460.775289 -514.088833,-462.609656 -515.422660,-463.299717 -513.063763,-469.890287 -513.063763,-469.890287"/>
  <node id="122797621" x="1155.694795" y="857.459217" shape="1154.205357,853.242397 1158.174588,853.737574 1157.679411,857.706806 1157.167286,861.681985 1153.200075,861.170871 1151.507866,859.030721 1151.925434,855.052576 1154.205357,853.242397 1154.205357,853.242397"/>
  <node id="122798027" x="1136.028161" y="1010.142174" shape="1132.955168,1002.688536 1140.889621,1003.710518 1143.393349,1006.862844 1142.592679,1014.822676 1137.135252,1014.475112 1131.591438,1013.651517 1132.518818,1005.705451 1132.955168,1002.688536 1132.955168,1002.688536"/>
  <node id="122806246" x="1078.173366" y="568.27492" shape="1076.678156,564.060143 1080.648062,564.549886 1082.356365,566.692985 1081.948713,570.672158 1074.020159,569.933496 1074.354581,565.947500 1076.678156,564.060143 1076.678156,564.060143"/>
  <node id="122811365" x="959.147776" y="187.760715" shape="959.072376,183.289215 962.679736,185.017495 963.618856,187.663558 961.908150,191.279285 959.287654,192.230663 955.655744,190.554586 954.676115,187.825899 956.412632,184.222497 959.072376,183.289215 959.072376,183.289215"/>
  <node id="122816241" x="1134.377214" y="761.237416"/>
  <node id="122816246" x="1119.947403" y="712.114651" shape="1116.220680,709.642500 1124.124416,710.516977 1123.731750,714.497657 1121.525894,716.298951 1117.547057,715.888024 1115.733648,713.612739 1116.220680,709.642500 1116.220680,709.642500"/>
  <node id="122816606" x="1012.496147" y="841.24649" shape="1010.962012,837.045725 1014.936278,837.498723 1016.702934,839.728946 1016.234254,843.701394 1008.290016,842.765853 1008.756978,838.793204 1010.962012,837.045725 1010.962012,837.045725"/>
  <node id="1293744039" x="1175.407227" y="1174.220663" shape="1172.140383,1167.791998 1179.755677,1168.658558 1178.457126,1180.588091 1176.372377,1181.436513 1172.414547,1180.857218 1170.729553,1179.708774 1172.140383,1167.791998 1172.140383,1167.791998"/>
  <node id="1293744042" x="1134.561497" y="1476.648167" shape="1133.053772,1472.437850 1137.025116,1472.915797 1138.837474,1475.338199 1138.175058,1479.282968 1130.297000,1477.995039 1130.925301,1474.044692 1133.053772,1472.437850 1133.053772,1472.437850"/>
  <node id="1293744043" x="1150.407787" y="1345.020751" shape="1149.008166,1340.773274 1152.965996,1341.352568 1154.542295,1343.316097 1154.252215,1347.305565 1151.915272,1349.231154 1147.943956,1348.752980 1146.271979,1346.722248 1146.565104,1342.733003 1149.008166,1340.773274 1149.008166,1340.773274"/>
  <node id="1295964707" x="739.953547" y="1126.025757" shape="738.282658,1121.877489 742.269628,1122.200085 744.260858,1122.911745 743.611769,1129.881586 739.629002,1129.510677 739.533951,1129.500514 735.562799,1129.020976 736.401992,1122.071461 738.282658,1121.877489 738.282658,1121.877489"/>
  <node id="1295964713" x="642.805774" y="1051.193123" shape="642.859516,1046.721310 646.415470,1048.553029 647.277910,1051.192134 645.489847,1054.770238 642.902837,1055.664206 639.287146,1053.953423 640.997928,1050.337732 641.027797,1050.277264 642.859516,1046.721310 642.859516,1046.721310"/>
  <node id="1347363882" x="-202.109469" y="-406.327417" shape="-203.212422,-411.526791 -197.102516,-408.110792 -200.976738,-401.134449 -207.106119,-404.515378 -206.576131,-406.106206 -204.966435,-409.768020 -203.212422,-411.526791 -203.212422,-411.526791"/>
  <node id="1363040482" x="814.595648" y="1051.259262" shape="813.165309,1047.022030 817.127230,1047.572652 818.830445,1049.821731 818.286551,1053.784581 816.288372,1055.398668 812.299757,1055.097085 812.601341,1051.108470 812.614688,1050.983951 813.165309,1047.022030 813.165309,1047.022030"/>
  <node id="1435738949" x="717.69331" y="-691.659806" shape="718.476544,-693.500063 722.157057,-691.933595 720.590590,-688.253082 717.907656,-687.299008 714.636100,-688.542761 716.057532,-692.281682 718.476544,-693.500063 718.476544,-693.500063"/>
  <node id="1435738952" x="915.611509" y="-580.543018" shape="913.884473,-584.668227 917.971107,-584.342004 920.066457,-580.934731 919.708392,-578.749823 916.635083,-576.189594 911.275121,-581.636515 913.884473,-584.668227 913.884473,-584.668227"/>
  <node id="1435934344" x="774.156443" y="-667.628467" shape="773.741174,-672.081281 777.469533,-670.632371 778.615330,-667.972450 777.106962,-664.267747 773.402259,-665.776115 773.373209,-665.788210 769.692696,-667.354678 771.259163,-671.035191 773.741174,-672.081281 773.741174,-672.081281"/>
  <node id="1435949125" x="-102.061074" y="-1695.150482"/>
  <node id="1451236406" x="1115.890112" y="1643.942576" shape="1114.297417,1639.763662 1118.277626,1640.161072 1120.064503,1642.338064 1119.678356,1646.319382 1111.726098,1645.573830 1112.086700,1641.590118 1114.297417,1639.763662 1114.297417,1639.763662"/>
  <node id="1634702973" x="1165.090332" y="-1924.80996" shape="1161.882313,-1929.469210 1169.749582,-1928.017979 1170.248174,-1927.133033 1167.413405,-1919.652118 1161.637641,-1920.329009 1160.609381,-1928.262651 1161.882313,-1929.469210 1161.882313,-1929.469210"/>
  <node id="1634703024" x="1199.498637" y="-2029.49035" shape="1196.839789,-2034.483398 1204.491685,-2032.149198 1203.324585,-2028.323250 1203.052450,-2027.654482 1201.216582,-2024.100669 1194.108956,-2027.772405 1196.839789,-2034.483398 1196.839789,-2034.483398"/>
  <node id="1784369274" x="-210.863291" y="1554.598442" shape="-210.735214,1550.128140 -207.210203,1552.018723 -206.663730,1553.061014 -207.113612,1557.035634 -209.268351,1558.776500 -213.248773,1558.381229 -214.961452,1556.388715 -214.754406,1552.394077 -210.735214,1550.128140 -210.735214,1550.128140"/>
  <node id="1796384196" x="832.037064" y="-2157.503184" shape="833.006539,-2168.100131 837.744753,-2165.954355 833.881816,-2156.730597 833.780372,-2156.522940 833.290250,-2155.651286 829.803634,-2157.611774 829.306396,-2166.580611 833.006539,-2168.100131 833.006539,-2168.100131"/>
  <node id="1796384203" x="841.686353" y="-2180.543349" shape="839.158258,-2185.218682 845.984723,-2183.669691 845.099586,-2179.768853 840.827049,-2173.314131 835.928263,-2174.031378 835.077002,-2180.979425 839.158258,-2185.218682 839.158258,-2185.218682"/>
  <node id="1796384205" x="807.461727" y="-2113.797337" shape="807.678906,-2118.264196 811.165522,-2116.303709 811.930906,-2113.634734 810.013152,-2110.124432 807.248160,-2109.330303 803.759960,-2111.287970 805.717627,-2114.776170 807.678906,-2118.264196 807.678906,-2118.264196"/>
  <node id="1796384208" x="789.65573" y="-2082.070347" shape="789.869297,-2086.537381 793.357497,-2084.579714 794.118428,-2081.779963 792.101042,-2078.325958 788.713983,-2077.698492 785.593198,-2080.200632 789.869297,-2086.537381 789.869297,-2086.537381"/>
  <node id="1849978244" x="748.085301" y="-2034.063426" shape="755.431112,-2058.379862 763.449234,-2054.292108 766.227986,-2051.379401 751.639809,-2031.128214 743.622186,-2035.216944 755.431112,-2058.379862 755.431112,-2058.379862"/>
  <node id="1901522908" x="-714.086446" y="-60.316142" shape="-714.095683,-64.788268 -710.514287,-63.006807 -712.295748,-59.425411 -714.078924,-55.844012 -717.659636,-57.626846 -718.557312,-60.209581 -716.854214,-63.828899 -714.095683,-64.788268 -714.095683,-64.788268"/>
  <node id="1901522909" x="-676.612212" y="-26.837467" shape="-676.648558,-31.309455 -673.056429,-29.549736 -672.165657,-26.359820 -674.326397,-22.993634 -681.084040,-26.889948 -679.253324,-30.446418 -676.648558,-31.309455 -676.648558,-31.309455"/>
  <node id="1901522911" x="-652.870766" y="-11.597934" shape="-655.156581,-15.441767 -648.403187,-11.396088 -650.351695,-7.902764 -652.356385,-7.155478 -656.116102,-8.520956 -657.317321,-12.075581 -655.156581,-15.441767 -655.156581,-15.441767"/>
  <node id="1901525457" x="-246.61159" y="1244.985154" shape="-247.468361,1236.968550 -243.804157,1238.572797 -243.720380,1238.610132 -240.077511,1240.262252 -245.859930,1253.012296 -253.083227,1249.793263 -247.468361,1236.968550 -247.468361,1236.968550"/>
  <node id="1996276601" x="944.128434" y="1553.630733" shape="940.700379,1547.286567 948.463057,1547.867831 947.780873,1559.848425 943.787342,1559.621030 943.573626,1559.605027 939.590764,1559.235155 940.700379,1547.286567 940.700379,1547.286567"/>
  <node id="1996276616" x="964.29557" y="1447.62001" shape="960.670562,1445.000980 964.618180,1445.646201 964.633077,1445.648693 968.575710,1446.323708 967.900696,1450.266341 965.517895,1451.921861 961.587484,1451.178981 960.025341,1448.948599 960.670562,1445.000980 960.670562,1445.000980"/>
  <node id="1997482750" x="323.126026" y="725.765534" shape="320.580377,722.088623 324.087660,724.011892 324.135015,724.038704 327.588675,726.056683 325.570696,729.510343 322.884873,730.231163 319.408830,728.251989 318.657108,725.595907 320.580377,722.088623 320.580377,722.088623"/>
  <node id="1997856834" x="901.14227" y="1390.538659" shape="900.124349,1386.183910 904.015317,1387.111473 905.315831,1388.931988 904.931743,1392.913505 902.299721,1394.858417 898.380935,1394.056475 899.182877,1390.137688 899.196786,1390.074878 900.124349,1386.183910 900.124349,1386.183910"/>
  <node id="1997954759" x="-206.234971" y="-764.728875" shape="-204.176855,-768.699285 -201.823773,-765.464628 -201.781404,-765.135993 -203.237137,-761.410292 -206.323292,-760.257611 -209.864975,-762.116774 -210.679832,-764.235713 -209.296417,-767.988867 -204.176855,-768.699285 -204.176855,-768.699285"/>
  <node id="1997999034" x="325.078911" y="-270.348039" shape="322.861966,-275.552379 328.363603,-273.382969 330.267606,-272.601359 327.332231,-265.159344 323.611224,-266.627032 323.585213,-266.637397 319.874571,-268.131094 322.861966,-275.552379 322.861966,-275.552379"/>
  <node id="1997999038" x="256.522453" y="-297.947672" shape="254.306734,-303.152534 256.231980,-302.410365 261.726960,-300.164225 258.739006,-292.743165 255.028476,-294.237142 251.317591,-295.731953 254.306734,-303.152534 254.306734,-303.152534"/>
  <node id="2533163327" x="1221.456765" y="-2101.472759" shape="1218.861696,-2106.531224 1226.464365,-2104.041357 1224.115613,-2096.479711 1216.463717,-2098.813911 1218.045560,-2104.364762 1218.861696,-2106.531224 1218.861696,-2106.531224"/>
  <node id="2533163333" x="1204.274862" y="-1618.469341" shape="1205.610507,-1619.957982 1206.143133,-1619.697984 1208.587789,-1617.286691 1205.916498,-1614.309409 1203.728691,-1614.030682 1200.396232,-1616.243082 1202.170985,-1619.226772 1202.608632,-1619.575541 1205.610507,-1619.957982 1205.610507,-1619.957982"/>
  <node id="2533163339" x="1202.226868" y="-1635.733204" shape="1202.463657,-1640.199067 1205.941631,-1638.223291 1206.687508,-1636.053655 1205.159613,-1632.356963 1204.684154,-1631.996662 1200.712006,-1631.525450 1199.823555,-1631.961721 1197.767693,-1635.392965 1202.463657,-1640.199067 1202.463657,-1640.199067"/>
  <node id="2533163341" x="1201.562675" y="-1614.384071" shape="1202.108846,-1618.822730 1205.441305,-1616.610330 1203.228905,-1613.277871 1201.016080,-1609.945464 1197.683832,-1612.158183 1197.117743,-1614.876598 1199.289738,-1618.235532 1202.108846,-1618.822730 1202.108846,-1618.822730"/>
  <node id="2533163351" x="1199.566986" y="-2106.81946" shape="1196.157172,-2109.713102 1203.927311,-2107.813223 1202.978191,-2103.927457 1200.576588,-2102.462775 1196.687399,-2103.397767 1195.206183,-2105.827794 1196.157172,-2109.713102 1196.157172,-2109.713102"/>
  <node id="2533163359" x="1186.898392" y="-1623.866464" shape="1187.258402,-1628.324086 1190.680496,-1626.253029 1191.343324,-1623.373937 1189.171329,-1620.015003 1186.533721,-1619.409221 1183.113795,-1621.483855 1187.258402,-1628.324086 1187.258402,-1628.324086"/>
  <node id="2533163404" x="1173.67095" y="-1915.640491" shape="1176.320161,-1920.638659 1178.130017,-1915.982137 1176.702056,-1910.864258 1168.894717,-1912.609385 1168.672782,-1918.289702 1176.320161,-1920.638659 1176.320161,-1920.638659"/>
  <node id="2533163433" x="1162.546028" y="-1905.015422" shape="1160.355571,-1910.230966 1165.803800,-1909.640022 1167.170628,-1901.757650 1165.459329,-1900.166435 1157.697041,-1902.102121 1157.330484,-1902.824965 1160.355571,-1910.230966 1160.355571,-1910.230966"/>
  <node id="2533163455" x="1153.919071" y="-1916.245965" shape="1151.755552,-1921.472741 1159.145847,-1918.409484 1158.401114,-1912.794692 1150.467798,-1911.763922 1149.647492,-1914.921725 1150.296731,-1918.868684 1151.755552,-1921.472741 1151.755552,-1921.472741"/>
  <node id="2533163490" x="1141.022976" y="-1918.367256" shape="1139.643960,-1922.621467 1143.598935,-1922.022996 1145.294555,-1919.691496 1144.645316,-1915.744537 1136.752209,-1917.040400 1137.399031,-1920.987756 1139.643960,-1922.621467 1139.643960,-1922.621467"/>
  <node id="2533163511" x="1130.302633" y="-1507.069894" shape="1130.849228,-1511.508501 1134.181476,-1509.295782 1134.706827,-1506.293318 1132.323889,-1503.080593 1125.866594,-1507.636957 1128.094660,-1510.958963 1130.849228,-1511.508501 1130.849228,-1511.508501"/>
  <node id="2533163521" x="1132.88192" y="-2108.548085"/>
  <node id="2533163543" x="1125.872682" y="-1823.90522" shape="1123.708135,-1829.131570 1131.099032,-1826.069767 1128.038563,-1818.679423 1120.646885,-1821.739339 1122.833447,-1827.185929 1123.708135,-1829.131570 1123.708135,-1829.131570"/>
  <node id="2533163547" x="1120.16899" y="-1513.866516" shape="1120.533661,-1518.323759 1123.953587,-1516.249125 1124.605029,-1513.299453 1122.376963,-1509.977447 1119.063598,-1509.533145 1116.039057,-1512.150807 1120.533661,-1518.323759 1120.533661,-1518.323759"/>
  <node id="2533163554" x="1118.89469" y="-1921.993243" shape="1115.540977,-1924.951723 1123.165457,-1923.320099 1122.518635,-1919.372743 1119.484803,-1917.560212 1115.702333,-1918.861334 1114.515678,-1921.085360 1115.540977,-1924.951723 1115.540977,-1924.951723"/>
  <node id="2533163569" x="1103.761281" y="-1815.673369" shape="1100.634183,-1818.870439 1108.194944,-1816.258714 1106.889755,-1812.477645 1104.239196,-1811.226843 1100.490809,-1812.623121 1099.327366,-1815.089933 1100.634183,-1818.870439 1100.634183,-1818.870439"/>
  <node id="2533163572" x="1103.821643" y="-1925.990379" shape="1105.569373,-1930.106863 1108.200655,-1926.898262 1107.175356,-1923.031899 1104.220346,-1921.536051 1100.497403,-1922.998820 1101.577094,-1929.858453 1105.569373,-1930.106863 1105.569373,-1930.106863"/>
  <node id="2533163585" x="1092.692025" y="-1845.819894" shape="1092.101912,-1850.252925 1095.884382,-1848.951803 1094.583260,-1845.169333 1093.279725,-1841.386542 1089.497963,-1842.689723 1088.221829,-1845.688186 1089.904541,-1849.317026 1092.101912,-1850.252925 1092.101912,-1850.252925"/>