<?xml version='1.0' encoding='UTF-8'?>
<edges>
  <edge id="10538969" from="90890692" to="90888572" numLanes="1" width="4.0" shape="-555.319230,52.420236 -614.837392,159.116964 "/>
  <edge id="11038508" from="104708750" to="104708751" numLanes="2" width="3.5" shape="706.932189,-673.115162 697.504167,-645.909558 "/>
  <edge id="12145366" from="110072267" to="Custom1726" numLanes="2" width="3.5" shape="734.670178,-2009.283040 761.116068,-2093.310377 761.147312,-2093.415361 782.318316,-2168.849052 782.323470,-2168.867612 791.646687,-2202.803621 791.681294,-2202.940310 820.744613,-2328.293825 820.801080,-2328.597852 831.035743,-2401.516437 831.068051,-2401.894927 835.812649,-2555.593747 835.794132,-2556.077069 830.983455,-2600.678499 830.923200,-2601.049223 813.918528,-2678.990650 "/>
  <edge id="12151568" from="Custom1727" to="110153804" numLanes="1" width="4.0" shape="1109.330258,50.529128 1092.214183,85.164867 "/>
  <edge id="12152230" from="110161302" to="110161301" numLanes="1" width="4.0" shape="889.970175,1602.537937 897.087181,1555.417756 "/>
  <edge id="12153204" from="110172009" to="110126712" numLanes="1" width="4.0" shape="67.688445,587.249253 66.466973,589.597095 -7.763714,732.482831 -27.123143,766.343997 "/>
  <edge id="12155890" from="Custom1728" to="110160962" numLanes="1" width="4.0" shape="818.528038,30.212411 844.374849,-21.697600 "/>
  <edge id="12158875" from="110160969" to="110227462" numLanes="1" width="4.0" shape="606.175745,-146.135822 665.799145,-266.520195 "/>
  <edge id="12162442" from="110182761" to="Custom1729" numLanes="1" width="4.0" shape="-1193.358570,251.333125 -1176.601800,213.272571 "/>
  <edge id="13317901" from="110150898" to="122806246" numLanes="1" width="4.0" shape="1098.243234,389.251593 1076.678156,564.060142 "/>
  <edge id="13319577" from="4933335753" to="122816606" numLanes="1" width="4.0" shape="1025.128094,706.099724 1025.696080,707.779998 1010.962012,837.045724 "/>
  <edge id="37601328" from="122779235" to="Custom1730" numLanes="1" width="4.0" shape="1163.161352,830.116684 1319.512555,847.674025 1382.078929,855.841955 1523.004043,874.280367 "/>
  <edge id="37603583" from="4837760544" to="98406113" numLanes="1" width="4.0" shape="1164.624238,1697.958552 1163.947990,1697.079789 1163.811547,1696.705556 1163.826330,1695.249607 1165.251001,1675.768693 1166.319440,1661.158883 1166.322046,1660.908719 1165.899368,1652.813936 "/>
  <edge id="37604951" from="440793621" to="4820477126" numLanes="1" width="4.0" shape="1199.723481,1646.637453 1205.299076,1593.343275 "/>
  <edge id="37604952" from="1451236406" to="440793684" numLanes="1" width="4.0" shape="1118.277627,1640.161072 1125.660529,1566.218490 "/>
  <edge id="37604953" from="440793690" to="440793692" numLanes="1" width="4.0" shape="1090.019214,1637.573762 1096.258877,1564.292059 "/>
  <edge id="37604954" from="440793695" to="440793697" numLanes="1" width="4.0" shape="1047.320801,1633.695275 1054.308713,1562.468279 "/>
  <edge id="37608836" from="440707116" to="440707119" numLanes="1" width="4.0" shape="1029.701209,1552.389454 1047.771412,1466.041810 "/>
  <edge id="37610188" from="440852544" to="440852601" numLanes="1" width="4.0" shape="840.526036,1427.956165 853.988831,1324.698521 "/>
  <edge id="37610190" from="Custom1731" to="630737615" numLanes="1" width="4.0" shape="844.693844,1747.640284 859.260306,1682.070310 "/>
  <edge id="37610590" from="440858316" to="440858351" numLanes="1" width="4.0" shape="967.417571,1560.693346 957.871552,1609.360899 "/>
  <edge id="37613571" from="440895319" to="440895317" numLanes="1" width="4.0" shape="878.256450,977.495273 894.748793,831.666000 "/>
  <edge id="37613572" from="440895322" to="440895323" numLanes="1" width="4.0" shape="936.830811,836.732581 931.541291,881.072609 918.762601,981.821574 "/>
  <edge id="37613573" from="440895325" to="440895324" numLanes="1" width="4.0" shape="915.837597,825.928793 931.595605,693.414478 "/>
  <edge id="37613949" from="440899716" to="440899725" numLanes="1" width="4.0" shape="992.623172,842.895388 972.517074,987.903949 "/>
  <edge id="37613952" from="440900033" to="122816241" numLanes="1" width="4.0" shape="1120.348543,747.412024 1132.635649,748.522826 1133.542241,748.922134 1133.742610,749.892291 1132.391851,760.995896 "/>
  <edge id="37613953" from="Custom1732" to="4857782378" numLanes="1" width="4.0" shape="1540.360957,757.090926 1331.524176,735.810901 1271.225384,727.341638 1249.961950,724.355083 1249.886728,724.345968 1175.225258,716.730126 "/>
  <edge id="37615163" from="440852643" to="440899725" numLanes="1" width="4.0" shape="955.806281,1142.567499 957.017189,1137.566571 957.056618,1137.354145 975.407051,996.427887 "/>
  <edge id="37615709" from="440707365" to="440707429" numLanes="1" width="4.0" shape="544.150227,1642.350619 540.489923,1638.028207 538.583231,1627.902484 541.733788,1580.784606 544.800873,1534.915084 544.804575,1534.726750 544.790543,1534.538903 544.758899,1534.353209 544.709926,1534.171316 543.312748,1529.811315 543.260302,1529.666974 543.196936,1529.527084 539.425995,1521.986670 "/>
  <edge id="37615740" from="440922299" to="440922290" numLanes="1" width="4.0" shape="715.940298,1127.173845 696.531017,1301.676764 "/>
  <edge id="37615741" from="440707203" to="440922332" numLanes="1" width="4.0" shape="772.104446,1374.151764 773.418685,1374.693016 773.574219,1374.749663 773.733905,1374.793254 773.896648,1374.823490 785.060761,1376.423015 "/>
  <edge id="37615743" from="440922340" to="440922344" numLanes="1" width="4.0" shape="755.837672,1443.297508 680.127428,1434.936155 "/>
  <edge id="37615947" from="440924988" to="630737622" numLanes="1" width="4.0" shape="579.030079,1197.125950 645.581560,1229.460519 "/>
  <edge id="37615959" from="Custom1733" to="630737620" numLanes="1" width="4.0" shape="553.640166,1366.456902 605.120025,1390.467835 616.845864,1395.946003 618.726061,1396.824407 620.895805,1397.835533 "/>
  <edge id="38086461" from="447962548" to="447962484" numLanes="1" width="4.0" shape="-52.114067,1632.517672 -44.616565,1577.492520 "/>
  <edge id="38086472" from="Custom1734" to="447962652" numLanes="1" width="4.0" shape="182.180690,1285.275521 216.764007,1292.076676 "/>
  <edge id="38086476" from="Custom1735" to="447962642" numLanes="1" width="4.0" shape="204.080467,1217.467055 249.689586,1224.763182 "/>
  <edge id="38086484" from="440922158" to="440922073" numLanes="1" width="4.0" shape="629.690432,1349.000402 527.973882,1293.832041 "/>
  <edge id="38086522" from="447963411" to="447963453" numLanes="1" width="4.0" shape="208.777465,1070.666607 229.667353,1034.053262 "/>
  <edge id="38087209" from="447972359" to="447972362" numLanes="1" width="4.0" shape="91.896035,1350.621622 82.021450,1417.580273 "/>
  <edge id="38088742" from="447996630" to="122779003" numLanes="1" width="4.0" shape="761.619757,832.535827 764.666259,832.952344 764.818547,832.967257 764.971529,832.970483 770.815675,832.870093 770.996453,832.858784 771.175466,832.831166 778.496973,831.359448 778.753735,831.289787 786.341732,828.678071 786.537861,828.598731 786.724511,828.499116 787.578809,827.983351 "/>
  <edge id="38089416" from="448007877" to="448007880" numLanes="1" width="4.0" shape="803.889292,521.725503 875.509444,555.432546 877.283164,556.266233 889.844684,562.170424 909.389491,571.376160 "/>
  <edge id="38089421" from="Custom1736" to="448007913" numLanes="1" width="4.0" shape="236.994638,270.697889 287.209390,291.791570 "/>
  <edge id="38089862" from="448015070" to="448013916" numLanes="1" width="4.0" shape="550.820612,593.669752 666.010515,670.133725 666.067895,670.170422 710.640041,697.618390 "/>
  <edge id="38092087" from="448033772" to="448033773" numLanes="1" width="4.0" shape="-210.124948,1368.999683 -212.993084,1374.351020 -302.247597,1540.846044 "/>
  <edge id="38092092" from="448033771" to="448033830" numLanes="1" width="4.0" shape="-394.818440,1529.972912 -291.095111,1333.145776 -288.822027,1328.831483 "/>
  <edge id="38092095" from="Custom1737" to="448033835" numLanes="1" width="4.0" shape="-35.364450,1113.533330 -16.701295,1078.763804 "/>
  <edge id="38092100" from="448033875" to="448033878" numLanes="1" width="4.0" shape="-173.230145,905.965392 -228.229512,955.831275 "/>
  <edge id="38092102" from="3642813053" to="3642813052" numLanes="1" width="4.0" shape="-381.334863,876.756428 -360.509789,887.931317 -340.460875,898.687950 "/>
  <edge id="38092104" from="447972351" to="448033887" numLanes="1" width="4.0" shape="-433.564879,904.360031 -412.079595,916.091035 "/>
  <edge id="38092107" from="448033898" to="448033897" numLanes="1" width="4.0" shape="-221.820547,615.643893 -237.740687,645.590461 "/>
  <edge id="38092108" from="448033898" to="5970191755" numLanes="1" width="4.0" shape="-214.572643,610.403339 -199.301220,580.607574 "/>
  <edge id="38092678" from="448232078" to="448037757" numLanes="1" width="4.0" shape="-1092.515944,600.589346 -1150.849451,730.237385 "/>
  <edge id="38105778" from="448295695" to="7054398848" numLanes="1" width="3.5" shape="-450.302148,269.839039 -471.977223,256.671171 -487.490023,247.011659 "/>
  <edge id="-38105778" to="448295695" from="7054398848" numLanes="1" width="3.5" shape="-487.490023,247.011659 -471.977223,256.671171 -450.302148,269.839039 "/>
  <edge id="38105797" from="448231541" to="448231570" numLanes="1" width="4.0" shape="-878.010762,623.332223 -826.320842,645.788417 "/>
  <edge id="38105806" from="448231663" to="448231767" numLanes="1" width="4.0" shape="-851.963602,708.277894 -876.329744,758.851420 -881.890139,760.495466 -928.920122,740.138989 "/>
  <edge id="38108280" from="448294562" to="448294604" numLanes="2" width="3.0" shape="209.072623,-1080.156397 257.252471,-1126.677354 257.485859,-1126.930129 297.010328,-1174.997983 297.144233,-1175.173634 297.264852,-1175.358661 324.465635,-1220.645057 324.610659,-1220.917305 340.115823,-1254.022048 340.229768,-1254.301010 353.607814,-1292.418847 368.390657,-1328.360902 "/>
  <edge id="38108288" from="448294604" to="448265794" numLanes="2" width="3.0" shape="368.394629,-1328.370606 385.982603,-1371.561379 "/>
  <edge id="38108308" from="606292172" to="459157618" numLanes="2" width="3.5" shape="-1317.562049,-189.261039 -1208.463084,-109.082299 "/>
  <edge id="38108317" from="920224092" to="448295086" numLanes="3" width="3.0" shape="415.997293,-1277.053412 357.987860,-1199.486822 357.983923,-1199.481550 322.208681,-1151.499000 286.276415,-1103.359127 264.645773,-1074.360052 264.515661,-1074.176190 252.677288,-1056.526491 "/>
  <edge id="38108318" from="448294849" to="920224092" numLanes="3" width="3.0" shape="460.796586,-1339.291385 457.712160,-1334.860482 415.951910,-1276.991638 "/>
  <edge id="38108319" from="4739162229" to="4739162228" numLanes="4" width="3.0" shape="625.024613,-1620.681990 599.215739,-1575.810299 "/>
  <edge id="38651921" from="122780618" to="Custom1738" numLanes="1" width="4.0" shape="156.233722,1458.012154 160.467435,1458.792992 171.365135,1460.802161 184.260710,1469.149334 202.198861,1487.039326 212.754548,1508.305862 220.854738,1535.613099 221.589035,1559.776709 217.950126,1581.381919 203.224713,1613.149352 203.218512,1613.162860 193.185929,1635.234812 188.457561,1639.036460 177.513274,1640.358883 177.301056,1640.396218 177.094086,1640.456168 176.894766,1640.538035 176.705411,1640.640871 168.661035,1645.588578 168.490910,1645.705737 168.333777,1645.839818 168.191312,1645.989392 168.065034,1646.152862 167.956290,1646.328485 167.866241,1646.514387 164.276218,1655.019436 164.207162,1655.209269 164.157607,1655.405100 164.128058,1655.604930 163.012946,1667.150848 "/>
  <edge id="38653462" from="457724141" to="457724152" numLanes="1" width="4.0" shape="-1090.854371,-1185.322559 -1090.658188,-1184.500259 -1090.602347,-1184.308976 -1090.527749,-1184.124200 -1090.435134,-1183.947765 -1090.325421,-1183.781421 -1090.199701,-1183.626820 -1090.059220,-1183.485497 -1084.084173,-1178.045620 -1081.710545,-1175.734309 "/>
  <edge id="38653474" from="457724152" to="103236853" numLanes="1" width="4.0" shape="-1081.806006,-1175.550760 -1087.245513,-1176.580417 -1087.424008,-1176.605933 -1087.604076,-1176.615269 -1093.524407,-1176.654982 -1093.711256,-1176.647493 -1093.896589,-1176.622586 -1094.078785,-1176.580478 -1096.323321,-1175.949868 "/>
  <edge id="38653482" from="457724218" to="457724296" numLanes="1" width="4.0" shape="-947.346801,-1380.760605 -953.763376,-1380.552636 -953.948611,-1380.537997 -954.131687,-1380.506229 -961.609906,-1378.847463 -961.777172,-1378.802684 -961.939937,-1378.743604 -962.096983,-1378.670667 -974.704949,-1372.137335 "/>
  <edge id="38653483" from="457724296" to="94060954" numLanes="1" width="4.0" shape="-984.019657,-1365.823091 -986.120984,-1364.358103 -986.265135,-1364.247547 -988.937205,-1361.998309 -989.067702,-1361.878182 -989.187042,-1361.746965 -989.294288,-1361.605691 -989.388596,-1361.455471 -993.163118,-1354.805438 "/>
  <edge id="38653484" from="94060952" to="457724296" numLanes="1" width="4.0" shape="-996.484547,-1366.781786 -996.448120,-1366.769684 -996.276940,-1366.721153 -996.102125,-1366.688028 -995.925057,-1366.670571 -985.065077,-1366.085997 -984.836435,-1366.086778 -984.609376,-1366.113650 -984.171724,-1366.191027 "/>
  <edge id="38728259" from="Custom1739" to="459148174" numLanes="1" width="4.0" shape="23.371064,-726.625709 7.112201,-683.566040 "/>
  <edge id="38728273" from="459148206" to="448265771" numLanes="1" width="4.0" shape="103.327828,-1009.047388 127.832039,-1007.374221 127.975959,-1007.369590 131.373061,-1007.382628 "/>
  <edge id="38728303" from="459148244" to="459148242" numLanes="1" width="4.0" shape="-261.747573,-983.015702 -111.615009,-923.188907 "/>
  <edge id="38728321" from="459148381" to="629568139" numLanes="1" width="4.0" shape="-995.955634,-1030.352241 -1107.179809,-1101.863209 "/>
  <edge id="38728322" from="459148389" to="459097155" numLanes="1" width="4.0" shape="-999.467336,-1009.173229 -879.693172,-938.708896 "/>
  <edge id="38728326" from="94244600" to="459148413" numLanes="1" width="4.0" shape="-1087.986572,-595.691784 -1008.755516,-550.603230 "/>
  <edge id="38728327" from="Custom1740" to="459148433" numLanes="1" width="4.0" shape="-1162.054697,-875.710598 -1110.097985,-845.073972 "/>
  <edge id="38728332" from="459148436" to="459148444" numLanes="1" width="4.0" shape="-999.392888,-914.214942 -1036.385997,-852.932536 "/>
  <edge id="38728335" from="459148439" to="459148460" numLanes="1" width="4.0" shape="-971.089751,-896.952153 -1009.368318,-834.763955 "/>
  <edge id="38728338" from="459148504" to="459148510" numLanes="1" width="4.0" shape="-1124.875647,-807.389316 -1010.134519,-734.015988 "/>
  <edge id="38728351" from="Custom1741" to="459148627" numLanes="1" width="4.0" shape="-1335.817212,-738.265244 -1215.777343,-665.309308 "/>
  <edge id="38728363" from="459148727" to="459148728" numLanes="1" width="4.0" shape="-1293.739171,-528.460727 -1180.732074,-459.670861 "/>
  <edge id="38730472" from="920284665" to="2706517317" numLanes="4" width="3.5" shape="-1056.539724,47.583494 -1099.165045,17.745237 -1126.608879,-4.556885 -1126.799009,-4.706019 -1139.123870,-14.034319 "/>
  <edge id="38730473" from="920284616" to="920284665" numLanes="4" width="3.5" shape="-813.318577,-64.045306 -830.692147,-25.057384 -841.238194,-1.969142 -848.555010,9.998799 -865.033333,34.065214 -878.710883,50.898982 -887.362502,58.943356 -895.934249,66.440676 -904.714364,71.890940 -913.966563,76.433032 -933.116891,82.471080 -950.160182,85.620496 -966.295772,85.938802 -982.788358,84.828728 -997.111789,80.963161 -1013.237412,74.101436 -1029.128751,65.180354 -1056.771424,47.428088 "/>
  <edge id="38730518" from="459157621" to="459148246" numLanes="1" width="4.0" shape="-474.579052,-543.384155 -448.867861,-593.880272 "/>
  <edge id="38730520" from="Custom1742" to="459157636" numLanes="1" width="4.0" shape="-692.767656,-282.455813 -687.361536,-300.100328 -681.304059,-307.387295 -670.724621,-311.731513 -610.422612,-277.885964 "/>
  <edge id="38730524" from="Custom1743" to="459157648" numLanes="1" width="4.0" shape="-480.786904,-322.219613 -435.281606,-306.897452 "/>
  <edge id="38730525" from="459157653" to="459157647" numLanes="1" width="4.0" shape="-298.822114,-245.999902 -431.188966,-297.844039 "/>
  <edge id="38730531" from="Custom1744" to="1901522909" numLanes="1" width="4.0" shape="-659.393701,-66.531939 -676.648557,-31.309455 "/>
  <edge id="38730536" from="Custom1745" to="1901522911" numLanes="1" width="4.0" shape="-670.032924,34.825137 -660.977836,21.851688 -660.873905,21.686087 -660.786640,21.511129 -660.716875,21.328486 -660.665276,21.139905 -657.581831,7.232313 -652.356384,-7.155478 "/>
  <edge id="38730537" from="Custom1746" to="98409038" numLanes="1" width="4.0" shape="-476.057578,-375.462199 -447.139816,-434.710570 "/>
  <edge id="38730538" from="Custom1747" to="459157649" numLanes="1" width="4.0" shape="-353.391572,-316.665131 -410.646527,-340.274156 "/>
  <edge id="38730540" from="459157794" to="459157801" numLanes="1" width="4.0" shape="-286.997125,-372.268495 -307.191714,-330.332484 -307.273859,-330.135700 -307.334586,-329.931289 -307.373205,-329.721574 -307.679322,-327.357517 -307.695139,-327.155168 -307.690366,-326.952258 -307.665052,-326.750877 -307.619458,-326.553098 -307.554053,-326.360959 -307.469512,-326.176438 -307.366704,-326.001435 -307.246689,-325.837754 -307.110702,-325.687079 -305.425830,-324.000758 -305.267284,-323.858159 -305.094456,-323.733250 -304.909311,-323.627452 -265.169827,-303.649926 "/>
  <edge id="38730542" from="459157822" to="7043000079" numLanes="1" width="4.0" shape="-72.539362,-282.874417 -81.271665,-256.233532 -85.390113,-251.232637 -97.634721,-256.116057 "/>
  <edge id="38730543" from="Custom1748" to="459157881" numLanes="1" width="4.0" shape="-98.579744,-204.531014 -154.094912,-233.874790 "/>
  <edge id="38730545" from="Custom1749" to="459157942" numLanes="1" width="4.0" shape="56.898728,-483.392502 0.333271,-507.175026 "/>
  <edge id="38730547" from="459157963" to="459157969" numLanes="1" width="4.0" shape="283.171397,-282.907224 239.254849,-174.404103 "/>
  <edge id="38730548" from="Custom1750" to="459157978" numLanes="1" width="4.0" shape="257.047163,-91.329521 281.206827,-148.923779 "/>
  <edge id="38731498" from="459148393" to="459166745" numLanes="1" width="4.0" shape="-804.253120,-903.956954 -736.024356,-881.848542 "/>
  <edge id="38731500" from="459166743" to="459166750" numLanes="1" width="4.0" shape="-831.109970,-669.570082 -662.700694,-604.598648 "/>
  <edge id="38731501" from="459166744" to="459166747" numLanes="1" width="4.0" shape="-746.177834,-843.371822 -581.318507,-774.512906 "/>
  <edge id="38731503" from="Custom1751" to="459166804" numLanes="1" width="4.0" shape="-516.666388,-773.835577 -477.606370,-865.109522 "/>
  <edge id="38731504" from="459166748" to="459166803" numLanes="1" width="4.0" shape="-586.487896,-745.255384 -479.170513,-703.084482 "/>
  <edge id="38731505" from="Custom1752" to="459166802" numLanes="1" width="4.0" shape="-602.077717,-588.766632 -585.807052,-580.977358 -584.441887,-574.530756 -582.600948,-565.837448 -582.551031,-565.648034 -582.482825,-565.464412 -582.396984,-565.288342 -582.294331,-565.121514 -582.175850,-564.965528 -582.042679,-564.821880 -581.896094,-564.691948 -581.737502,-564.576979 -581.568424,-564.478075 -554.550513,-550.402043 "/>
  <edge id="38731514" from="459663498" to="459663494" numLanes="2" width="3.5" shape="330.844132,-1165.122767 327.166226,-1167.965034 318.427930,-1177.295035 307.012050,-1189.726069 288.755703,-1209.605854 288.557954,-1209.804588 278.758885,-1218.893522 "/>
  <edge id="38731522" from="459166893" to="459166944" numLanes="1" width="4.0" shape="-310.435700,-1332.443251 -303.808976,-1329.511472 "/>
  <edge id="38731524" from="459166894" to="459166888" numLanes="1" width="4.0" shape="-199.889386,-1563.512361 -198.312631,-1561.450907 "/>
  <edge id="38731534" from="459166881" to="459166939" numLanes="1" width="4.0" shape="71.646848,-1448.615245 76.410700,-1453.724251 "/>
  <edge id="38732436" from="Custom1753" to="459176446" numLanes="1" width="4.0" shape="-405.948279,45.324323 -383.453349,4.823758 "/>
  <edge id="38732437" from="Custom1754" to="459176448" numLanes="1" width="4.0" shape="-377.253001,-30.508437 -388.260400,-6.535183 "/>
  <edge id="38732438" from="Custom1755" to="459176450" numLanes="1" width="4.0" shape="-372.152405,53.743152 -352.141053,19.845206 "/>
  <edge id="38732439" from="Custom1756" to="651056467" numLanes="1" width="4.0" shape="-319.617401,124.658760 -342.748995,163.213572 "/>
  <edge id="38732440" from="Custom1757" to="90890687" numLanes="1" width="4.0" shape="-265.462143,137.076619 -295.591930,190.594317 "/>
  <edge id="38732441" from="459176445" to="459176455" numLanes="1" width="4.0" shape="-70.401227,161.467145 -42.068655,104.994449 -41.353967,104.284736 -40.360110,104.448202 9.997817,131.108196 "/>
  <edge id="38732442" from="459176458" to="459176431" numLanes="1" width="4.0" shape="-116.982479,-76.313549 -74.941836,-53.152336 "/>
  <edge id="38732446" from="459176432" to="459176494" numLanes="1" width="4.0" shape="-50.563780,-87.274090 -38.541532,-81.148596 -37.437025,-80.228755 -35.623685,-78.633480 -32.687250,-76.050170 -32.476773,-75.888462 -30.483214,-74.557411 -30.302221,-74.449889 -9.600539,-63.582983 "/>
  <edge id="38732447" from="Custom1758" to="459176493" numLanes="1" width="4.0" shape="-60.925841,-22.740716 -27.928455,-5.825485 "/>
  <edge id="38732451" from="459176499" to="Custom1759" numLanes="1" width="4.0" shape="-81.253304,69.057932 -76.324026,69.745850 -76.122821,69.763631 -75.920849,69.761026 -75.720170,69.738063 -75.522830,69.694975 -75.330843,69.632203 -73.238360,68.828960 -73.040426,68.740386 -72.853245,68.630904 -72.679017,68.501801 -72.519790,68.354593 -70.413646,66.184141 -70.291032,66.045485 -70.181762,65.896087 -70.086772,65.737228 -70.006874,65.570267 -68.496540,61.998418 "/>
  <edge id="38732459" from="Custom1760" to="459176550" numLanes="1" width="4.0" shape="249.805724,-64.339083 245.473487,-48.041739 244.247546,-45.410067 243.636532,-44.940324 242.381705,-44.993633 237.057085,-47.018337 235.880174,-47.465861 235.817220,-47.488601 231.563064,-48.945276 231.387145,-48.996638 231.207262,-49.031681 231.024927,-49.050112 230.841671,-49.051775 230.659031,-49.036657 230.478543,-49.004883 228.033831,-48.457978 227.845838,-48.406182 227.663783,-48.336324 227.489396,-48.249069 227.324335,-48.145247 227.170170,-48.025844 227.028364,-47.891995 224.978052,-45.758357 224.856931,-45.620125 224.749010,-45.471358 224.655201,-45.313313 224.576296,-45.147323 224.512962,-44.974791 216.218467,-18.706261 "/>
  <edge id="38732460" from="459176552" to="459176551" numLanes="1" width="4.0" shape="255.878665,381.886714 269.743336,348.267236 "/>
  <edge id="38732461" from="Custom1761" to="459176553" numLanes="1" width="4.0" shape="310.774212,119.434185 332.440055,50.627337 "/>
  <edge id="38732462" from="Custom1762" to="459176555" numLanes="1" width="4.0" shape="355.882360,129.904182 373.635481,70.234078 "/>
  <edge id="38732482" from="Custom1763" to="459176926" numLanes="1" width="4.0" shape="1119.153365,-273.548348 1059.590311,-304.228391 "/>
  <edge id="38732485" from="459177122" to="459177135" numLanes="3" width="4.0" shape="1085.816814,-398.010306 1016.495510,-502.183192 "/>
  <edge id="-38732485" to="459177122" from="459177135" numLanes="1" width="4.0" shape="1016.495510,-502.183192 1085.816814,-398.010306 "/>
  <edge id="38733605" from="459262692" to="459262674" numLanes="1" width="4.0" shape="505.501565,-405.191359 439.879956,-229.360327 "/>
  <edge id="38733606" from="Custom1764" to="459262674" numLanes="1" width="4.0" shape="431.040686,-192.805334 440.876921,-220.419221 "/>
  <edge id="38733607" from="4823914276" to="6989292887" numLanes="1" width="4.0" shape="264.315937,-791.052376 255.187446,-793.450350 220.509644,-807.267076 216.735052,-808.967363 "/>
  <edge id="38733615" from="659653792" to="659653790" numLanes="1" width="4.0" shape="227.363251,-987.842571 326.794348,-951.044124 "/>
  <edge id="38733626" from="659653791" to="459263365" numLanes="1" width="4.0" shape="320.928964,-914.530520 459.130616,-859.838508 "/>
  <edge id="38733629" from="459262775" to="459263653" numLanes="1" width="4.0" shape="545.357647,-682.846080 551.823924,-701.969043 560.070166,-718.673263 560.135394,-718.819949 560.188647,-718.971393 567.065689,-741.362562 589.270495,-783.675335 "/>
  <edge id="38735549" from="448295693" to="459176428" numLanes="1" width="4.0" shape="-257.283519,-54.205546 -112.729800,28.330377 "/>
  <edge id="38735550" from="Custom1765" to="459275784" numLanes="1" width="4.0" shape="-331.237267,-91.226379 -365.009215,-112.581708 "/>
  <edge id="38735551" from="Custom1766" to="459275839" numLanes="1" width="4.0" shape="-943.169214,169.852479 -972.635941,224.768911 "/>
  <edge id="38735553" from="459275847" to="459275866" numLanes="1" width="4.0" shape="-1000.698455,293.905823 -922.211506,333.960691 "/>
  <edge id="38735554" from="459275918" to="459275912" numLanes="1" width="4.0" shape="-1158.587093,270.710519 -1113.214427,181.080081 -1105.838899,166.520833 "/>
  <edge id="38756557" from="104708751" to="459529831" numLanes="1" width="4.0" shape="697.554142,-646.113572 700.028669,-656.157750 701.232611,-660.173816 713.980889,-702.699047 713.988938,-702.726615 729.153202,-756.084843 729.173562,-756.162360 738.550348,-795.013748 738.557171,-795.042974 751.301798,-851.553689 "/>
  <edge id="38756560" from="459529861" to="459529877" numLanes="1" width="4.0" shape="754.638301,-978.577851 739.653637,-989.489180 739.508208,-989.585657 739.354922,-989.669089 739.194946,-989.738841 730.855636,-992.949543 730.637463,-993.019479 730.412723,-993.064005 722.806091,-994.122625 722.589349,-994.140848 718.288662,-994.267649 718.114377,-994.265189 717.940969,-994.247564 717.769753,-994.214907 717.602031,-994.167467 706.266861,-990.420678 706.053030,-990.336073 705.850324,-990.227482 699.737399,-986.485278 699.563212,-986.365548 699.402633,-986.228104 699.257457,-986.074481 693.536282,-979.340637 693.398582,-979.158423 693.282554,-978.961698 691.146029,-974.814920 691.131119,-974.785382 687.997232,-968.447443 687.929857,-968.295626 687.875313,-968.138742 687.833974,-967.977873 686.055073,-959.631571 686.018666,-959.388033 685.293151,-951.050050 685.285715,-950.857365 685.296871,-950.664859 686.250554,-941.710844 686.281853,-941.512318 686.332920,-941.317936 689.128510,-932.504927 689.191133,-932.334708 689.268919,-932.170863 693.568482,-924.082892 693.659291,-923.929065 693.763464,-923.783953 698.909970,-917.251731 699.038411,-917.104167 699.180656,-916.969857 705.326538,-911.710895 705.445232,-911.616874 705.570700,-911.532102 712.182516,-907.420553 712.385601,-907.310004 712.600089,-907.223634 720.877025,-904.434958 "/>
  <edge id="38756561" from="459529877" to="459529833" numLanes="1" width="4.0" shape="721.164330,-904.361364 728.834416,-902.992968 728.984658,-902.972007 729.136057,-902.962495 735.410029,-902.806770 735.611555,-902.811931 735.811539,-902.837353 743.408806,-904.195213 743.599515,-904.239022 743.785029,-904.301258 743.963574,-904.381325 750.304249,-907.606109 750.537955,-907.745757 753.451791,-909.768114 753.646463,-909.921962 758.389613,-914.174095 758.548642,-914.333707 758.688710,-914.510192 758.808038,-914.701313 761.235612,-919.126211 761.357010,-919.391819 762.403362,-922.208950 "/>
  <edge id="38756626" from="459529829" to="104708750" numLanes="1" width="4.0" shape="746.878807,-815.329238 746.158911,-812.971779 746.128162,-812.859478 745.380820,-809.780918 734.105937,-763.335802 717.107164,-705.059584 716.730455,-703.768127 716.718056,-703.723723 714.306369,-694.685864 "/>
  <edge id="38757117" from="459534004" to="459534007" numLanes="1" width="4.0" shape="429.805896,-1134.279402 448.335968,-1124.198422 479.246354,-1107.325772 479.471183,-1107.220596 497.042972,-1100.294324 497.055437,-1100.289458 574.527338,-1070.349646 "/>
  <edge id="38757118" from="459534007" to="459529838" numLanes="1" width="4.0" shape="574.517290,-1070.353560 616.669324,-1053.801725 685.445434,-1026.337565 685.496803,-1026.317867 702.167226,-1020.186977 702.354337,-1020.128403 710.593341,-1017.986460 710.874064,-1017.934531 721.151872,-1016.783976 721.387667,-1016.771605 737.254884,-1016.877074 737.481218,-1016.891437 737.704472,-1016.931332 749.951656,-1019.844940 750.152134,-1019.903854 750.345371,-1019.983363 759.791786,-1024.460694 759.907403,-1024.520170 767.120639,-1028.532535 767.294200,-1028.641066 775.790435,-1034.579552 775.978194,-1034.728287 776.146824,-1034.898403 784.725145,-1044.657475 784.844423,-1044.807027 784.948868,-1044.967291 798.997695,-1068.959637 823.936011,-1110.940449 827.519674,-1115.507695 "/>
  <edge id="38757119" from="459534017" to="459533995" numLanes="1" width="4.0" shape="855.124950,-818.471154 860.971289,-793.810753 868.186992,-758.431372 868.208456,-758.337691 870.801779,-748.149630 870.864013,-747.949608 872.969629,-742.252803 872.982016,-742.220170 878.652311,-727.665327 "/>
  <edge id="38757120" from="459529823" to="459534017" numLanes="1" width="4.0" shape="832.450106,-1086.457223 828.538736,-1074.808705 828.497636,-1074.669830 822.467112,-1051.201534 822.425121,-1050.992428 820.355751,-1036.804372 820.340471,-1036.666075 819.268670,-1022.449436 819.264817,-1022.384084 818.658254,-1008.125385 818.661349,-1007.900440 819.866412,-990.720321 819.888309,-990.533952 823.926691,-966.113857 823.944796,-966.018743 831.459504,-931.156142 842.592386,-877.618946 842.593932,-877.611580 855.114444,-818.517966 "/>