<?xml version='1.0' encoding='UTF-8'?>
<nodes>
  <node id="112662665" x="-19.686653" y="57.191409" shape="-41.720005,44.249209 -26.189764,49.440795 -17.168315,52.477549 -20.295768,62.500974 -44.244379,59.284182 -45.041660,55.364445 -45.048959,54.207526 -41.720005,44.249209 -41.720005,44.249209"/>
  <node id="112662748" x="-321.206676" y="123.47888" shape="-310.618787,103.548866 -305.107263,108.352450 -302.643471,111.503597 -317.652502,127.470164 -325.979236,121.073641 -325.370043,120.280619 -312.490922,105.633614 -310.618787,103.548866 -310.618787,103.548866"/>
  <node id="112664009" x="-279.085198" y="-28.647978" shape="-301.322643,-41.220112 -276.565953,-33.361353 -279.695334,-23.338530 -303.846450,-26.635058 -304.501413,-31.212844 -301.322643,-41.220112 -301.322643,-41.220112"/>
  <node id="112664093" x="-269.081805" y="36.885175" shape="-271.211958,33.933490 -265.713803,38.265959 -266.332728,39.051410 -266.453743,39.196731 -286.927521,62.473853 -292.425167,57.742072 -294.390348,54.258099 -271.211958,33.933490 -271.211958,33.933490"/>
  <node id="112685489" x="-396.438201" y="-88.867335" shape="-384.485890,-94.357532 -382.455646,-89.892350 -385.665179,-79.894905 -398.042967,-83.868613 -398.127316,-83.896481 -399.074146,-84.218217 -396.986963,-90.790577 -395.695915,-94.159925 -384.485890,-94.357532 -384.485890,-94.357532"/>
  <node id="112685553" x="-94.80423" y="-169.090435" shape="-96.821972,-172.120075 -91.490488,-167.584077 -107.797128,-147.447085 -113.241240,-151.847272 -115.639892,-155.130664 -96.821972,-172.120075 -96.821972,-172.120075"/>
  <node id="112687059_1" x="-266.064876" y="-47.01289" shape="-275.920418,-59.587808 -263.492992,-51.697750 -266.734448,-41.710610 -282.903844,-46.904885 -279.694311,-56.902329 -275.920418,-59.587808 -275.920418,-59.587808"/>
  <node id="112687141" x="-188.379781" y="-57.509571" shape="-181.841433,-75.460894 -178.060308,-73.842314 -172.917836,-69.093105 -186.478952,-54.405243 -191.633714,-59.141110 -181.841433,-75.460894 -181.841433,-75.460894"/>
  <node id="112688157" x="-221.087914" y="8.892044" shape="-223.094060,5.854713 -217.779955,10.411059 -235.204366,36.563794 -239.103699,34.361270 -244.328909,29.703247 -223.094060,5.854713 -223.094060,5.854713"/>
  <node id="112688244" x="-168.275428" y="7.478726" shape="-167.518868,2.188157 -140.055440,11.376777 -143.384394,21.335093 -146.274605,24.635069 -170.923904,12.120716 -167.518868,2.188157 -167.518868,2.188157"/>
  <node id="112694754" x="-160.2163" y="-12.483812" shape="-159.526560,-17.783506 -123.561758,-10.313210 -123.481189,-5.621295 -126.840230,4.326913 -162.805990,-7.808771 -159.526560,-17.783506 -159.526560,-17.783506"/>
  <node id="112694835" x="-142.677443" y="-85.205525" shape="-130.702725,-103.989990 -125.464585,-99.346512 -124.797021,-98.553239 -123.393003,-94.807744 -140.648437,-82.183418 -145.996769,-86.699537 -145.351609,-87.463585 -145.296513,-87.527264 -130.702725,-103.989990 -130.702725,-103.989990"/>
  <node id="112703313" x="-409.452416" y="-70.058619" shape="-408.505718,-75.318492 -395.473080,-71.126633 -398.651850,-61.119365 -402.833711,-58.692320 -412.266432,-65.515072 -411.007612,-68.801096 -408.505718,-75.318492 -408.505718,-75.318492"/>
  <node id="112872188" x="-385.631145" y="200.054262" shape="-387.085491,180.395997 -376.786003,182.438191 -376.552717,182.557273 -368.857170,189.700700 -376.690581,205.560288 -377.214965,206.411770 -390.780889,199.033165 -395.096092,195.399719 -387.085491,180.395997 -387.085491,180.395997"/>
  <node id="113025971" x="468.669174" y="190.250015"/>
  <node id="113177751" x="-74.745802" y="-161.83676" shape="-76.881071,-164.784747 -71.375411,-160.461819 -80.378031,-143.580857 -84.730458,-145.297212 -89.968598,-149.940690 -76.881071,-164.784747 -76.881071,-164.784747"/>
  <node id="113214327" x="-354.979877" y="140.079663" shape="-342.479910,108.880820 -338.028135,109.972426 -332.590629,114.358457 -350.668330,143.075170 -351.238903,143.896417 -359.861997,137.905403 -342.479910,108.880820 -342.479910,108.880820"/>
  <node id="437608874" x="-255.439043" y="-21.265042"/>
  <node id="437608875" x="-241.082513" y="-38.904539"/>
  <node id="437608876" x="-170.884179" y="-15.991129"/>
  <node id="437608877" x="-185.406031" y="1.606087"/>
  <node id="437641743" x="407.533587" y="189.629212"/>
  <node id="437641744" x="413.050175" y="172.39634"/>
  <node id="437641745" x="462.500601" y="207.30292"/>
  <node id="112687059" x="-3.8" y="40.6" shape="-13.000000,26.400000 -0.500000,32.600000 -4.700000,45.800000 -20.600000,40.900000 -17.600000,30.900000 -14.400000,27.900000 -13.000000,26.400000"/>
  <node id="112687059_3" x="92.8" y="67.7" shape="83.500000,55.400000 95.500000,59.100000 91.200000,72.500000 77.400000,64.600000 79.200000,58.800000 79.200000,58.700000 80.600000,54.500000 83.500000,55.400000"/>
  <node id="Custom26" x="796.741133" y="295.83403899999996"/>
  <node id="Custom27" x="791.852172" y="313.535332"/>
  <node id="Custom28" x="-861.896867" y="-340.764691"/>
  <node id="Custom29" x="-585.932955" y="607.05521"/>
  <node id="Custom30" x="76.96137300000001" y="-371.923137"/>
  <node id="Custom31" x="103.705967" y="-373.066025"/>
  <node id="Custom32" x="-877.801677" y="-332.89799899999997"/>
</nodes>
