<?xml version="1.0" encoding="UTF-8"?>

<!-- generated on Fri Jul 16 05:03:05 2021 by SUMO duarouter Version 0.30.0
<?xml version="1.0" encoding="UTF-8"?>

<configuration xmlns:xsi="http://www.w3.org/2001/XMLSchema-instance" xsi:noNamespaceSchemaLocation="http://sumo.dlr.de/xsd/duarouterConfiguration.xsd">

    <input>
        <net-file value="/home/mwfranc/CAVSITAW/Merging/worlds/LinkonMKZmyMap_4_net/sumo.net.xml"/>
        <route-files value="/home/mwfranc/CAVSITAW/Merging/worlds/LinkonMKZmyMap_4_net/sumo.flow.xml"/>
    </input>

    <output>
        <output-file value="/home/mwfranc/CAVSITAW/Merging/worlds/LinkonMKZmyMap_4_net/sumo.rou.xml"/>
    </output>

    <processing>
        <randomize-flows value="true"/>
    </processing>

    <random_number>
        <seed value="15865"/>
    </random_number>

</configuration>
-->

<routes xmlns:xsi="http://www.w3.org/2001/XMLSchema-instance" xsi:noNamespaceSchemaLocation="http://sumo.dlr.de/xsd/routes_file.xsd">
    <vType id="type1" length="1.50" minGap="0.01"/>
    <vehicle id="1.0" type="type1" depart="0.00" departLane="free" departPos="last" departSpeed="random">
        <route edges="334781289_2 37434590 37434591_1 37434591_3 37434591_4 37434591_2 37435724 -119097"/>
    </vehicle>
    <vehicle id="1.1" type="type1" depart="0.34" departLane="free" departPos="last" departSpeed="random">
        <route edges="334781289_2 37434590 37434591_1 37434591_3 37434591_4 37434591_2 37435724 -119097"/>
    </vehicle>
    <vehicle id="1.2" type="type1" depart="0.41" departLane="free" departPos="last" departSpeed="random">
        <route edges="334781289_2 37434590 37434591_1 37434591_3 37434591_4 37434591_2 37435724 -119097"/>
    </vehicle>
    <vehicle id="1.3" type="type1" depart="0.41" departLane="free" departPos="last" departSpeed="random">
        <route edges="334781289_2 37434590 37434591_1 37434591_3 37434591_4 37434591_2 37435724 -119097"/>
    </vehicle>
    <vehicle id="1.4" type="type1" depart="0.45" departLane="free" departPos="last" departSpeed="random">
        <route edges="334781289_2 37434590 37434591_1 37434591_3 37434591_4 37434591_2 37435724 -119097"/>
    </vehicle>
    <vehicle id="1.5" type="type1" depart="0.54" departLane="free" departPos="last" departSpeed="random">
        <route edges="334781289_2 37434590 37434591_1 37434591_3 37434591_4 37434591_2 37435724 -119097"/>
    </vehicle>
    <vehicle id="1.6" type="type1" depart="0.59" departLane="free" departPos="last" departSpeed="random">
        <route edges="334781289_2 37434590 37434591_1 37434591_3 37434591_4 37434591_2 37435724 -119097"/>
    </vehicle>
    <vehicle id="1.7" type="type1" depart="0.62" departLane="free" departPos="last" departSpeed="random">
        <route edges="334781289_2 37434590 37434591_1 37434591_3 37434591_4 37434591_2 37435724 -119097"/>
    </vehicle>
    <vehicle id="1.8" type="type1" depart="0.68" departLane="free" departPos="last" departSpeed="random">
        <route edges="334781289_2 37434590 37434591_1 37434591_3 37434591_4 37434591_2 37435724 -119097"/>
    </vehicle>
    <vehicle id="1.9" type="type1" depart="0.87" departLane="free" departPos="last" departSpeed="random">
        <route edges="334781289_2 37434590 37434591_1 37434591_3 37434591_4 37434591_2 37435724 -119097"/>
    </vehicle>
    <vehicle id="1.10" type="type1" depart="0.87" departLane="free" departPos="last" departSpeed="random">
        <route edges="334781289_2 37434590 37434591_1 37434591_3 37434591_4 37434591_2 37435724 -119097"/>
    </vehicle>
    <vehicle id="1.11" type="type1" depart="0.92" departLane="free" departPos="last" departSpeed="random">
        <route edges="334781289_2 37434590 37434591_1 37434591_3 37434591_4 37434591_2 37435724 -119097"/>
    </vehicle>
    <vehicle id="1.12" type="type1" depart="1.12" departLane="free" departPos="last" departSpeed="random">
        <route edges="334781289_2 37434590 37434591_1 37434591_3 37434591_4 37434591_2 37435724 -119097"/>
    </vehicle>
    <vehicle id="1.13" type="type1" depart="1.12" departLane="free" departPos="last" departSpeed="random">
        <route edges="334781289_2 37434590 37434591_1 37434591_3 37434591_4 37434591_2 37435724 -119097"/>
    </vehicle>
    <vehicle id="1.14" type="type1" depart="1.18" departLane="free" departPos="last" departSpeed="random">
        <route edges="334781289_2 37434590 37434591_1 37434591_3 37434591_4 37434591_2 37435724 -119097"/>
    </vehicle>
    <vehicle id="1.15" type="type1" depart="1.22" departLane="free" departPos="last" departSpeed="random">
        <route edges="334781289_2 37434590 37434591_1 37434591_3 37434591_4 37434591_2 37435724 -119097"/>
    </vehicle>
    <vehicle id="1.16" type="type1" depart="1.25" departLane="free" departPos="last" departSpeed="random">
        <route edges="334781289_2 37434590 37434591_1 37434591_3 37434591_4 37434591_2 37435724 -119097"/>
    </vehicle>
    <vehicle id="1.17" type="type1" depart="1.31" departLane="free" departPos="last" departSpeed="random">
        <route edges="334781289_2 37434590 37434591_1 37434591_3 37434591_4 37434591_2 37435724 -119097"/>
    </vehicle>
    <vehicle id="1.18" type="type1" depart="1.34" departLane="free" departPos="last" departSpeed="random">
        <route edges="334781289_2 37434590 37434591_1 37434591_3 37434591_4 37434591_2 37435724 -119097"/>
    </vehicle>
    <vehicle id="1.19" type="type1" depart="1.40" departLane="free" departPos="last" departSpeed="random">
        <route edges="334781289_2 37434590 37434591_1 37434591_3 37434591_4 37434591_2 37435724 -119097"/>
    </vehicle>
    <vehicle id="1.20" type="type1" depart="1.63" departLane="free" departPos="last" departSpeed="random">
        <route edges="334781289_2 37434590 37434591_1 37434591_3 37434591_4 37434591_2 37435724 -119097"/>
    </vehicle>
    <vehicle id="1.21" type="type1" depart="1.71" departLane="free" departPos="last" departSpeed="random">
        <route edges="334781289_2 37434590 37434591_1 37434591_3 37434591_4 37434591_2 37435724 -119097"/>
    </vehicle>
    <vehicle id="1.22" type="type1" depart="1.76" departLane="free" departPos="last" departSpeed="random">
        <route edges="334781289_2 37434590 37434591_1 37434591_3 37434591_4 37434591_2 37435724 -119097"/>
    </vehicle>
    <vehicle id="1.23" type="type1" depart="1.98" departLane="free" departPos="last" departSpeed="random">
        <route edges="334781289_2 37434590 37434591_1 37434591_3 37434591_4 37434591_2 37435724 -119097"/>
    </vehicle>
    <vehicle id="1.24" type="type1" depart="1.98" departLane="free" departPos="last" departSpeed="random">
        <route edges="334781289_2 37434590 37434591_1 37434591_3 37434591_4 37434591_2 37435724 -119097"/>
    </vehicle>
    <vehicle id="1.25" type="type1" depart="2.13" departLane="free" departPos="last" departSpeed="random">
        <route edges="334781289_2 37434590 37434591_1 37434591_3 37434591_4 37434591_2 37435724 -119097"/>
    </vehicle>
    <vehicle id="1.26" type="type1" depart="2.15" departLane="free" departPos="last" departSpeed="random">
        <route edges="334781289_2 37434590 37434591_1 37434591_3 37434591_4 37434591_2 37435724 -119097"/>
    </vehicle>
    <vehicle id="1.27" type="type1" depart="2.15" departLane="free" departPos="last" departSpeed="random">
        <route edges="334781289_2 37434590 37434591_1 37434591_3 37434591_4 37434591_2 37435724 -119097"/>
    </vehicle>
    <vehicle id="1.28" type="type1" depart="2.29" departLane="free" departPos="last" departSpeed="random">
        <route edges="334781289_2 37434590 37434591_1 37434591_3 37434591_4 37434591_2 37435724 -119097"/>
    </vehicle>
    <vehicle id="1.29" type="type1" depart="2.36" departLane="free" departPos="last" departSpeed="random">
        <route edges="334781289_2 37434590 37434591_1 37434591_3 37434591_4 37434591_2 37435724 -119097"/>
    </vehicle>
    <vehicle id="1.30" type="type1" depart="2.54" departLane="free" departPos="last" departSpeed="random">
        <route edges="334781289_2 37434590 37434591_1 37434591_3 37434591_4 37434591_2 37435724 -119097"/>
    </vehicle>
    <vehicle id="1.31" type="type1" depart="2.57" departLane="free" departPos="last" departSpeed="random">
        <route edges="334781289_2 37434590 37434591_1 37434591_3 37434591_4 37434591_2 37435724 -119097"/>
    </vehicle>
    <vehicle id="1.32" type="type1" depart="2.62" departLane="free" departPos="last" departSpeed="random">
        <route edges="334781289_2 37434590 37434591_1 37434591_3 37434591_4 37434591_2 37435724 -119097"/>
    </vehicle>
    <vehicle id="1.33" type="type1" depart="2.66" departLane="free" departPos="last" departSpeed="random">
        <route edges="334781289_2 37434590 37434591_1 37434591_3 37434591_4 37434591_2 37435724 -119097"/>
    </vehicle>
    <vehicle id="1.34" type="type1" depart="2.69" departLane="free" departPos="last" departSpeed="random">
        <route edges="334781289_2 37434590 37434591_1 37434591_3 37434591_4 37434591_2 37435724 -119097"/>
    </vehicle>
    <vehicle id="1.35" type="type1" depart="2.74" departLane="free" departPos="last" departSpeed="random">
        <route edges="334781289_2 37434590 37434591_1 37434591_3 37434591_4 37434591_2 37435724 -119097"/>
    </vehicle>
    <vehicle id="1.36" type="type1" depart="2.89" departLane="free" departPos="last" departSpeed="random">
        <route edges="334781289_2 37434590 37434591_1 37434591_3 37434591_4 37434591_2 37435724 -119097"/>
    </vehicle>
    <vehicle id="1.37" type="type1" depart="2.94" departLane="free" departPos="last" departSpeed="random">
        <route edges="334781289_2 37434590 37434591_1 37434591_3 37434591_4 37434591_2 37435724 -119097"/>
    </vehicle>
    <vehicle id="1.38" type="type1" depart="2.98" departLane="free" departPos="last" departSpeed="random">
        <route edges="334781289_2 37434590 37434591_1 37434591_3 37434591_4 37434591_2 37435724 -119097"/>
    </vehicle>
    <vehicle id="1.39" type="type1" depart="3.02" departLane="free" departPos="last" departSpeed="random">
        <route edges="334781289_2 37434590 37434591_1 37434591_3 37434591_4 37434591_2 37435724 -119097"/>
    </vehicle>
    <vehicle id="1.40" type="type1" depart="3.25" departLane="free" departPos="last" departSpeed="random">
        <route edges="334781289_2 37434590 37434591_1 37434591_3 37434591_4 37434591_2 37435724 -119097"/>
    </vehicle>
    <vehicle id="1.41" type="type1" depart="3.39" departLane="free" departPos="last" departSpeed="random">
        <route edges="334781289_2 37434590 37434591_1 37434591_3 37434591_4 37434591_2 37435724 -119097"/>
    </vehicle>
    <vehicle id="1.42" type="type1" depart="3.42" departLane="free" departPos="last" departSpeed="random">
        <route edges="334781289_2 37434590 37434591_1 37434591_3 37434591_4 37434591_2 37435724 -119097"/>
    </vehicle>
    <vehicle id="1.43" type="type1" depart="3.54" departLane="free" departPos="last" departSpeed="random">
        <route edges="334781289_2 37434590 37434591_1 37434591_3 37434591_4 37434591_2 37435724 -119097"/>
    </vehicle>
    <vehicle id="1.44" type="type1" depart="3.70" departLane="free" departPos="last" departSpeed="random">
        <route edges="334781289_2 37434590 37434591_1 37434591_3 37434591_4 37434591_2 37435724 -119097"/>
    </vehicle>
    <vehicle id="1.45" type="type1" depart="3.89" departLane="free" departPos="last" departSpeed="random">
        <route edges="334781289_2 37434590 37434591_1 37434591_3 37434591_4 37434591_2 37435724 -119097"/>
    </vehicle>
    <vehicle id="1.46" type="type1" depart="4.07" departLane="free" departPos="last" departSpeed="random">
        <route edges="334781289_2 37434590 37434591_1 37434591_3 37434591_4 37434591_2 37435724 -119097"/>
    </vehicle>
    <vehicle id="1.47" type="type1" depart="4.08" departLane="free" departPos="last" departSpeed="random">
        <route edges="334781289_2 37434590 37434591_1 37434591_3 37434591_4 37434591_2 37435724 -119097"/>
    </vehicle>
    <vehicle id="1.48" type="type1" depart="4.50" departLane="free" departPos="last" departSpeed="random">
        <route edges="334781289_2 37434590 37434591_1 37434591_3 37434591_4 37434591_2 37435724 -119097"/>
    </vehicle>
    <vehicle id="1.49" type="type1" depart="4.61" departLane="free" departPos="last" departSpeed="random">
        <route edges="334781289_2 37434590 37434591_1 37434591_3 37434591_4 37434591_2 37435724 -119097"/>
    </vehicle>
    <vehicle id="1.50" type="type1" depart="4.64" departLane="free" departPos="last" departSpeed="random">
        <route edges="334781289_2 37434590 37434591_1 37434591_3 37434591_4 37434591_2 37435724 -119097"/>
    </vehicle>
    <vehicle id="1.51" type="type1" depart="4.70" departLane="free" departPos="last" departSpeed="random">
        <route edges="334781289_2 37434590 37434591_1 37434591_3 37434591_4 37434591_2 37435724 -119097"/>
    </vehicle>
    <vehicle id="1.52" type="type1" depart="4.89" departLane="free" departPos="last" departSpeed="random">
        <route edges="334781289_2 37434590 37434591_1 37434591_3 37434591_4 37434591_2 37435724 -119097"/>
    </vehicle>
    <vehicle id="1.53" type="type1" depart="5.12" departLane="free" departPos="last" departSpeed="random">
        <route edges="334781289_2 37434590 37434591_1 37434591_3 37434591_4 37434591_2 37435724 -119097"/>
    </vehicle>
    <vehicle id="1.54" type="type1" depart="5.31" departLane="free" departPos="last" departSpeed="random">
        <route edges="334781289_2 37434590 37434591_1 37434591_3 37434591_4 37434591_2 37435724 -119097"/>
    </vehicle>
    <vehicle id="1.55" type="type1" depart="5.67" departLane="free" departPos="last" departSpeed="random">
        <route edges="334781289_2 37434590 37434591_1 37434591_3 37434591_4 37434591_2 37435724 -119097"/>
    </vehicle>
    <vehicle id="1.56" type="type1" depart="5.69" departLane="free" departPos="last" departSpeed="random">
        <route edges="334781289_2 37434590 37434591_1 37434591_3 37434591_4 37434591_2 37435724 -119097"/>
    </vehicle>
    <vehicle id="1.57" type="type1" depart="5.96" departLane="free" departPos="last" departSpeed="random">
        <route edges="334781289_2 37434590 37434591_1 37434591_3 37434591_4 37434591_2 37435724 -119097"/>
    </vehicle>
    <vehicle id="1.58" type="type1" depart="6.13" departLane="free" departPos="last" departSpeed="random">
        <route edges="334781289_2 37434590 37434591_1 37434591_3 37434591_4 37434591_2 37435724 -119097"/>
    </vehicle>
    <vehicle id="1.59" type="type1" depart="6.13" departLane="free" departPos="last" departSpeed="random">
        <route edges="334781289_2 37434590 37434591_1 37434591_3 37434591_4 37434591_2 37435724 -119097"/>
    </vehicle>
    <vehicle id="1.60" type="type1" depart="6.14" departLane="free" departPos="last" departSpeed="random">
        <route edges="334781289_2 37434590 37434591_1 37434591_3 37434591_4 37434591_2 37435724 -119097"/>
    </vehicle>
    <vehicle id="1.61" type="type1" depart="6.21" departLane="free" departPos="last" departSpeed="random">
        <route edges="334781289_2 37434590 37434591_1 37434591_3 37434591_4 37434591_2 37435724 -119097"/>
    </vehicle>
    <vehicle id="1.62" type="type1" depart="6.39" departLane="free" departPos="last" departSpeed="random">
        <route edges="334781289_2 37434590 37434591_1 37434591_3 37434591_4 37434591_2 37435724 -119097"/>
    </vehicle>
    <vehicle id="1.63" type="type1" depart="6.43" departLane="free" departPos="last" departSpeed="random">
        <route edges="334781289_2 37434590 37434591_1 37434591_3 37434591_4 37434591_2 37435724 -119097"/>
    </vehicle>
    <vehicle id="1.64" type="type1" depart="6.47" departLane="free" departPos="last" departSpeed="random">
        <route edges="334781289_2 37434590 37434591_1 37434591_3 37434591_4 37434591_2 37435724 -119097"/>
    </vehicle>
    <vehicle id="1.65" type="type1" depart="6.49" departLane="free" departPos="last" departSpeed="random">
        <route edges="334781289_2 37434590 37434591_1 37434591_3 37434591_4 37434591_2 37435724 -119097"/>
    </vehicle>
    <vehicle id="1.66" type="type1" depart="6.59" departLane="free" departPos="last" departSpeed="random">
        <route edges="334781289_2 37434590 37434591_1 37434591_3 37434591_4 37434591_2 37435724 -119097"/>
    </vehicle>
    <vehicle id="1.67" type="type1" depart="6.66" departLane="free" departPos="last" departSpeed="random">
        <route edges="334781289_2 37434590 37434591_1 37434591_3 37434591_4 37434591_2 37435724 -119097"/>
    </vehicle>
    <vehicle id="1.68" type="type1" depart="6.81" departLane="free" departPos="last" departSpeed="random">
        <route edges="334781289_2 37434590 37434591_1 37434591_3 37434591_4 37434591_2 37435724 -119097"/>
    </vehicle>
    <vehicle id="1.69" type="type1" depart="6.88" departLane="free" departPos="last" departSpeed="random">
        <route edges="334781289_2 37434590 37434591_1 37434591_3 37434591_4 37434591_2 37435724 -119097"/>
    </vehicle>
    <vehicle id="1.70" type="type1" depart="6.90" departLane="free" departPos="last" departSpeed="random">
        <route edges="334781289_2 37434590 37434591_1 37434591_3 37434591_4 37434591_2 37435724 -119097"/>
    </vehicle>
    <vehicle id="1.71" type="type1" depart="6.94" departLane="free" departPos="last" departSpeed="random">
        <route edges="334781289_2 37434590 37434591_1 37434591_3 37434591_4 37434591_2 37435724 -119097"/>
    </vehicle>
    <vehicle id="1.72" type="type1" depart="7.19" departLane="free" departPos="last" departSpeed="random">
        <route edges="334781289_2 37434590 37434591_1 37434591_3 37434591_4 37434591_2 37435724 -119097"/>
    </vehicle>
    <vehicle id="1.73" type="type1" depart="7.23" departLane="free" departPos="last" departSpeed="random">
        <route edges="334781289_2 37434590 37434591_1 37434591_3 37434591_4 37434591_2 37435724 -119097"/>
    </vehicle>
    <vehicle id="1.74" type="type1" depart="7.30" departLane="free" departPos="last" departSpeed="random">
        <route edges="334781289_2 37434590 37434591_1 37434591_3 37434591_4 37434591_2 37435724 -119097"/>
    </vehicle>
    <vehicle id="1.75" type="type1" depart="7.56" departLane="free" departPos="last" departSpeed="random">
        <route edges="334781289_2 37434590 37434591_1 37434591_3 37434591_4 37434591_2 37435724 -119097"/>
    </vehicle>
    <vehicle id="1.76" type="type1" depart="7.79" departLane="free" departPos="last" departSpeed="random">
        <route edges="334781289_2 37434590 37434591_1 37434591_3 37434591_4 37434591_2 37435724 -119097"/>
    </vehicle>
    <vehicle id="1.77" type="type1" depart="7.80" departLane="free" departPos="last" departSpeed="random">
        <route edges="334781289_2 37434590 37434591_1 37434591_3 37434591_4 37434591_2 37435724 -119097"/>
    </vehicle>
    <vehicle id="1.78" type="type1" depart="7.90" departLane="free" departPos="last" departSpeed="random">
        <route edges="334781289_2 37434590 37434591_1 37434591_3 37434591_4 37434591_2 37435724 -119097"/>
    </vehicle>
    <vehicle id="1.79" type="type1" depart="8.23" departLane="free" departPos="last" departSpeed="random">
        <route edges="334781289_2 37434590 37434591_1 37434591_3 37434591_4 37434591_2 37435724 -119097"/>
    </vehicle>
    <vehicle id="1.80" type="type1" depart="8.34" departLane="free" departPos="last" departSpeed="random">
        <route edges="334781289_2 37434590 37434591_1 37434591_3 37434591_4 37434591_2 37435724 -119097"/>
    </vehicle>
    <vehicle id="1.81" type="type1" depart="8.51" departLane="free" departPos="last" departSpeed="random">
        <route edges="334781289_2 37434590 37434591_1 37434591_3 37434591_4 37434591_2 37435724 -119097"/>
    </vehicle>
    <vehicle id="1.82" type="type1" depart="8.52" departLane="free" departPos="last" departSpeed="random">
        <route edges="334781289_2 37434590 37434591_1 37434591_3 37434591_4 37434591_2 37435724 -119097"/>
    </vehicle>
    <vehicle id="1.83" type="type1" depart="8.74" departLane="free" departPos="last" departSpeed="random">
        <route edges="334781289_2 37434590 37434591_1 37434591_3 37434591_4 37434591_2 37435724 -119097"/>
    </vehicle>
    <vehicle id="1.84" type="type1" depart="8.82" departLane="free" departPos="last" departSpeed="random">
        <route edges="334781289_2 37434590 37434591_1 37434591_3 37434591_4 37434591_2 37435724 -119097"/>
    </vehicle>
    <vehicle id="1.85" type="type1" depart="8.88" departLane="free" departPos="last" departSpeed="random">
        <route edges="334781289_2 37434590 37434591_1 37434591_3 37434591_4 37434591_2 37435724 -119097"/>
    </vehicle>
    <vehicle id="1.86" type="type1" depart="8.93" departLane="free" departPos="last" departSpeed="random">
        <route edges="334781289_2 37434590 37434591_1 37434591_3 37434591_4 37434591_2 37435724 -119097"/>
    </vehicle>
    <vehicle id="1.87" type="type1" depart="8.97" departLane="free" departPos="last" departSpeed="random">
        <route edges="334781289_2 37434590 37434591_1 37434591_3 37434591_4 37434591_2 37435724 -119097"/>
    </vehicle>
    <vehicle id="1.88" type="type1" depart="9.13" departLane="free" departPos="last" departSpeed="random">
        <route edges="334781289_2 37434590 37434591_1 37434591_3 37434591_4 37434591_2 37435724 -119097"/>
    </vehicle>
    <vehicle id="1.89" type="type1" depart="9.20" departLane="free" departPos="last" departSpeed="random">
        <route edges="334781289_2 37434590 37434591_1 37434591_3 37434591_4 37434591_2 37435724 -119097"/>
    </vehicle>
    <vehicle id="1.90" type="type1" depart="9.21" departLane="free" departPos="last" departSpeed="random">
        <route edges="334781289_2 37434590 37434591_1 37434591_3 37434591_4 37434591_2 37435724 -119097"/>
    </vehicle>
    <vehicle id="1.91" type="type1" depart="9.26" departLane="free" departPos="last" departSpeed="random">
        <route edges="334781289_2 37434590 37434591_1 37434591_3 37434591_4 37434591_2 37435724 -119097"/>
    </vehicle>
    <vehicle id="1.92" type="type1" depart="9.34" departLane="free" departPos="last" departSpeed="random">
        <route edges="334781289_2 37434590 37434591_1 37434591_3 37434591_4 37434591_2 37435724 -119097"/>
    </vehicle>
    <vehicle id="1.93" type="type1" depart="9.39" departLane="free" departPos="last" departSpeed="random">
        <route edges="334781289_2 37434590 37434591_1 37434591_3 37434591_4 37434591_2 37435724 -119097"/>
    </vehicle>
    <vehicle id="1.94" type="type1" depart="9.40" departLane="free" departPos="last" departSpeed="random">
        <route edges="334781289_2 37434590 37434591_1 37434591_3 37434591_4 37434591_2 37435724 -119097"/>
    </vehicle>
    <vehicle id="1.95" type="type1" depart="9.51" departLane="free" departPos="last" departSpeed="random">
        <route edges="334781289_2 37434590 37434591_1 37434591_3 37434591_4 37434591_2 37435724 -119097"/>
    </vehicle>
    <vehicle id="1.96" type="type1" depart="9.59" departLane="free" departPos="last" departSpeed="random">
        <route edges="334781289_2 37434590 37434591_1 37434591_3 37434591_4 37434591_2 37435724 -119097"/>
    </vehicle>
    <vehicle id="1.97" type="type1" depart="9.69" departLane="free" departPos="last" departSpeed="random">
        <route edges="334781289_2 37434590 37434591_1 37434591_3 37434591_4 37434591_2 37435724 -119097"/>
    </vehicle>
    <vehicle id="1.98" type="type1" depart="9.94" departLane="free" departPos="last" departSpeed="random">
        <route edges="334781289_2 37434590 37434591_1 37434591_3 37434591_4 37434591_2 37435724 -119097"/>
    </vehicle>
    <vehicle id="1.99" type="type1" depart="10.03" departLane="free" departPos="last" departSpeed="random">
        <route edges="334781289_2 37434590 37434591_1 37434591_3 37434591_4 37434591_2 37435724 -119097"/>
    </vehicle>
    <vehicle id="1.100" type="type1" depart="10.06" departLane="free" departPos="last" departSpeed="random">
        <route edges="334781289_2 37434590 37434591_1 37434591_3 37434591_4 37434591_2 37435724 -119097"/>
    </vehicle>
    <vehicle id="1.101" type="type1" depart="10.06" departLane="free" departPos="last" departSpeed="random">
        <route edges="334781289_2 37434590 37434591_1 37434591_3 37434591_4 37434591_2 37435724 -119097"/>
    </vehicle>
    <vehicle id="1.102" type="type1" depart="10.14" departLane="free" departPos="last" departSpeed="random">
        <route edges="334781289_2 37434590 37434591_1 37434591_3 37434591_4 37434591_2 37435724 -119097"/>
    </vehicle>
    <vehicle id="1.103" type="type1" depart="10.15" departLane="free" departPos="last" departSpeed="random">
        <route edges="334781289_2 37434590 37434591_1 37434591_3 37434591_4 37434591_2 37435724 -119097"/>
    </vehicle>
    <vehicle id="1.104" type="type1" depart="10.32" departLane="free" departPos="last" departSpeed="random">
        <route edges="334781289_2 37434590 37434591_1 37434591_3 37434591_4 37434591_2 37435724 -119097"/>
    </vehicle>
    <vehicle id="1.105" type="type1" depart="10.44" departLane="free" departPos="last" departSpeed="random">
        <route edges="334781289_2 37434590 37434591_1 37434591_3 37434591_4 37434591_2 37435724 -119097"/>
    </vehicle>
    <vehicle id="1.106" type="type1" depart="10.50" departLane="free" departPos="last" departSpeed="random">
        <route edges="334781289_2 37434590 37434591_1 37434591_3 37434591_4 37434591_2 37435724 -119097"/>
    </vehicle>
    <vehicle id="1.107" type="type1" depart="10.56" departLane="free" departPos="last" departSpeed="random">
        <route edges="334781289_2 37434590 37434591_1 37434591_3 37434591_4 37434591_2 37435724 -119097"/>
    </vehicle>
    <vehicle id="1.108" type="type1" depart="10.60" departLane="free" departPos="last" departSpeed="random">
        <route edges="334781289_2 37434590 37434591_1 37434591_3 37434591_4 37434591_2 37435724 -119097"/>
    </vehicle>
    <vehicle id="1.109" type="type1" depart="10.74" departLane="free" departPos="last" departSpeed="random">
        <route edges="334781289_2 37434590 37434591_1 37434591_3 37434591_4 37434591_2 37435724 -119097"/>
    </vehicle>
    <vehicle id="1.110" type="type1" depart="10.78" departLane="free" departPos="last" departSpeed="random">
        <route edges="334781289_2 37434590 37434591_1 37434591_3 37434591_4 37434591_2 37435724 -119097"/>
    </vehicle>
    <vehicle id="1.111" type="type1" depart="10.91" departLane="free" departPos="last" departSpeed="random">
        <route edges="334781289_2 37434590 37434591_1 37434591_3 37434591_4 37434591_2 37435724 -119097"/>
    </vehicle>
    <vehicle id="1.112" type="type1" depart="11.18" departLane="free" departPos="last" departSpeed="random">
        <route edges="334781289_2 37434590 37434591_1 37434591_3 37434591_4 37434591_2 37435724 -119097"/>
    </vehicle>
    <vehicle id="1.113" type="type1" depart="11.28" departLane="free" departPos="last" departSpeed="random">
        <route edges="334781289_2 37434590 37434591_1 37434591_3 37434591_4 37434591_2 37435724 -119097"/>
    </vehicle>
    <vehicle id="1.114" type="type1" depart="11.37" departLane="free" departPos="last" departSpeed="random">
        <route edges="334781289_2 37434590 37434591_1 37434591_3 37434591_4 37434591_2 37435724 -119097"/>
    </vehicle>
    <vehicle id="1.115" type="type1" depart="12.25" departLane="free" departPos="last" departSpeed="random">
        <route edges="334781289_2 37434590 37434591_1 37434591_3 37434591_4 37434591_2 37435724 -119097"/>
    </vehicle>
    <vehicle id="1.116" type="type1" depart="12.26" departLane="free" departPos="last" departSpeed="random">
        <route edges="334781289_2 37434590 37434591_1 37434591_3 37434591_4 37434591_2 37435724 -119097"/>
    </vehicle>
    <vehicle id="1.117" type="type1" depart="12.30" departLane="free" departPos="last" departSpeed="random">
        <route edges="334781289_2 37434590 37434591_1 37434591_3 37434591_4 37434591_2 37435724 -119097"/>
    </vehicle>
    <vehicle id="1.118" type="type1" depart="12.41" departLane="free" departPos="last" departSpeed="random">
        <route edges="334781289_2 37434590 37434591_1 37434591_3 37434591_4 37434591_2 37435724 -119097"/>
    </vehicle>
    <vehicle id="1.119" type="type1" depart="12.43" departLane="free" departPos="last" departSpeed="random">
        <route edges="334781289_2 37434590 37434591_1 37434591_3 37434591_4 37434591_2 37435724 -119097"/>
    </vehicle>
    <vehicle id="1.120" type="type1" depart="12.51" departLane="free" departPos="last" departSpeed="random">
        <route edges="334781289_2 37434590 37434591_1 37434591_3 37434591_4 37434591_2 37435724 -119097"/>
    </vehicle>
    <vehicle id="1.121" type="type1" depart="12.68" departLane="free" departPos="last" departSpeed="random">
        <route edges="334781289_2 37434590 37434591_1 37434591_3 37434591_4 37434591_2 37435724 -119097"/>
    </vehicle>
    <vehicle id="1.122" type="type1" depart="12.71" departLane="free" departPos="last" departSpeed="random">
        <route edges="334781289_2 37434590 37434591_1 37434591_3 37434591_4 37434591_2 37435724 -119097"/>
    </vehicle>
    <vehicle id="1.123" type="type1" depart="12.72" departLane="free" departPos="last" departSpeed="random">
        <route edges="334781289_2 37434590 37434591_1 37434591_3 37434591_4 37434591_2 37435724 -119097"/>
    </vehicle>
    <vehicle id="1.124" type="type1" depart="13.06" departLane="free" departPos="last" departSpeed="random">
        <route edges="334781289_2 37434590 37434591_1 37434591_3 37434591_4 37434591_2 37435724 -119097"/>
    </vehicle>
    <vehicle id="1.125" type="type1" depart="13.25" departLane="free" departPos="last" departSpeed="random">
        <route edges="334781289_2 37434590 37434591_1 37434591_3 37434591_4 37434591_2 37435724 -119097"/>
    </vehicle>