<?xml version="1.0" encoding="UTF-8"?>

<!-- generated on 12/10/20 10:35:09 by Eclipse SUMO netconvert Version 1.8.0
<configuration xmlns:xsi="http://www.w3.org/2001/XMLSchema-instance" xsi:noNamespaceSchemaLocation="http://sumo.dlr.de/xsd/netconvertConfiguration.xsd">

    <input>
        <node-files value="sumotest.nod.xml"/>
        <edge-files value="sumotest.edg.xml"/>
    </input>

    <output>
        <output-file value="sumotest.net.xml"/>
    </output>

    <report>
        <aggregate-warnings value="5"/>
    </report>

</configuration>
-->

<net version="1.6" junctionCornerDetail="5" limitTurnSpeed="5.50" xmlns:xsi="http://www.w3.org/2001/XMLSchema-instance" xsi:noNamespaceSchemaLocation="http://sumo.dlr.de/xsd/net_file.xsd">

    <location netOffset="0.00,2000.00" convBoundary="0.00,0.00,2500.00,2000.00" origBoundary="0.00,-2000.00,2500.00,0.00" projParameter="!"/>

    <edge id=":10_0" function="internal">
        <lane id=":10_0_0" index="0" speed="6.51" length="9.03" shape="1489.60,1995.20 1492.05,1994.85 1493.80,1993.80 1494.85,1992.05 1495.20,1989.60"/>
    </edge>
    <edge id=":10_1" function="internal">
        <lane id=":10_1_0" index="0" speed="7.33" length="11.73" shape="1489.60,1995.20 1493.45,1994.85 1496.20,1993.80 1497.85,1992.05 1498.40,1989.60"/>
    </edge>
    <edge id=":10_2" function="internal">
        <lane id=":10_2_0" index="0" speed="14.00" length="14.40" shape="1489.60,1995.20 1504.00,1995.20"/>
        <lane id=":10_2_1" index="1" speed="14.00" length="14.40" shape="1489.60,1998.40 1504.00,1998.40"/>
    </edge>
    <edge id=":11_0" function="internal">
        <lane id=":11_0_0" index="0" speed="14.00" length="14.40" shape="1495.20,1004.00 1495.20,989.60"/>
        <lane id=":11_0_1" index="1" speed="14.00" length="14.40" shape="1498.40,1004.00 1498.40,989.60"/>
    </edge>
    <edge id=":11_2" function="internal">
        <lane id=":11_2_0" index="0" speed="6.51" length="4.28" shape="1498.40,1004.00 1498.75,1001.55 1499.68,1000.00"/>
    </edge>
    <edge id=":11_6" function="internal">
        <lane id=":11_6_0" index="0" speed="6.51" length="4.75" shape="1499.68,1000.00 1499.80,999.80 1501.55,998.75 1504.00,998.40"/>
    </edge>
    <edge id=":11_3" function="internal">
        <lane id=":11_3_0" index="0" speed="6.51" length="9.03" shape="1489.60,995.20 1492.05,994.85 1493.80,993.80 1494.85,992.05 1495.20,989.60"/>
    </edge>
    <edge id=":11_4" function="internal">
        <lane id=":11_4_0" index="0" speed="14.00" length="14.40" shape="1489.60,995.20 1504.00,995.20"/>
        <lane id=":11_4_1" index="1" speed="14.00" length="14.40" shape="1489.60,998.40 1504.00,998.40"/>
    </edge>
    <edge id=":12_0" function="internal">
        <lane id=":12_0_0" index="0" speed="8.00" length="4.06" shape="1495.20,4.00 1495.75,0.15 1495.84,0.00"/>
    </edge>
    <edge id=":12_1" function="internal">
        <lane id=":12_1_0" index="0" speed="6.51" length="4.28" shape="1498.40,4.00 1498.75,1.55 1499.68,0.00"/>
    </edge>
    <edge id=":12_4" function="internal">
        <lane id=":12_4_0" index="0" speed="8.00" length="10.13" shape="1495.84,0.00 1497.40,-2.60 1500.15,-4.25 1504.00,-4.80"/>
    </edge>
    <edge id=":12_5" function="internal">
        <lane id=":12_5_0" index="0" speed="6.51" length="4.75" shape="1499.68,0.00 1499.80,-0.20 1501.55,-1.25 1504.00,-1.60"/>
    </edge>
    <edge id=":12_2" function="internal">
        <lane id=":12_2_0" index="0" speed="14.00" length="14.40" shape="1489.60,-4.80 1504.00,-4.80"/>
        <lane id=":12_2_1" index="1" speed="14.00" length="14.40" shape="1489.60,-1.60 1504.00,-1.60"/>
    </edge>
    <edge id=":13_0" function="internal">
        <lane id=":13_0_0" index="0" speed="6.51" length="9.03" shape="1989.60,1995.20 1992.05,1994.85 1993.80,1993.80 1994.85,1992.05 1995.20,1989.60"/>
    </edge>
    <edge id=":13_1" function="internal">
        <lane id=":13_1_0" index="0" speed="7.33" length="11.73" shape="1989.60,1995.20 1993.45,1994.85 1996.20,1993.80 1997.85,1992.05 1998.40,1989.60"/>
    </edge>
    <edge id=":13_2" function="internal">
        <lane id=":13_2_0" index="0" speed="14.00" length="14.40" shape="1989.60,1995.20 2004.00,1995.20"/>
        <lane id=":13_2_1" index="1" speed="14.00" length="14.40" shape="1989.60,1998.40 2004.00,1998.40"/>
    </edge>
    <edge id=":14_0" function="internal">
        <lane id=":14_0_0" index="0" speed="14.00" length="14.40" shape="1995.20,1004.00 1995.20,989.60"/>
        <lane id=":14_0_1" index="1" speed="14.00" length="14.40" shape="1998.40,1004.00 1998.40,989.60"/>
    </edge>
    <edge id=":14_2" function="internal">
        <lane id=":14_2_0" index="0" speed="6.51" length="4.28" shape="1998.40,1004.00 1998.75,1001.55 1999.68,1000.00"/>
    </edge>
    <edge id=":14_6" function="internal">
        <lane id=":14_6_0" index="0" speed="6.51" length="4.75" shape="1999.68,1000.00 1999.80,999.80 2001.55,998.75 2004.00,998.40"/>
    </edge>
    <edge id=":14_3" function="internal">
        <lane id=":14_3_0" index="0" speed="6.51" length="9.03" shape="1989.60,995.20 1992.05,994.85 1993.80,993.80 1994.85,992.05 1995.20,989.60"/>
    </edge>
    <edge id=":14_4" function="internal">
        <lane id=":14_4_0" index="0" speed="14.00" length="14.40" shape="1989.60,995.20 2004.00,995.20"/>
        <lane id=":14_4_1" index="1" speed="14.00" length="14.40" shape="1989.60,998.40 2004.00,998.40"/>
    </edge>
    <edge id=":15_0" function="internal">
        <lane id=":15_0_0" index="0" speed="8.00" length="4.06" shape="1995.20,4.00 1995.75,0.15 1995.84,0.00"/>
    </edge>
    <edge id=":15_1" function="internal">
        <lane id=":15_1_0" index="0" speed="6.51" length="4.28" shape="1998.40,4.00 1998.75,1.55 1999.68,-0.00"/>
    </edge>
    <edge id=":15_4" function="internal">
        <lane id=":15_4_0" index="0" speed="8.00" length="10.13" shape="1995.84,0.00 1997.40,-2.60 2000.15,-4.25 2004.00,-4.80"/>
    </edge>
    <edge id=":15_5" function="internal">
        <lane id=":15_5_0" index="0" speed="6.51" length="4.75" shape="1999.68,-0.00 1999.80,-0.20 2001.55,-1.25 2004.00,-1.60"/>
    </edge>
    <edge id=":15_2" function="internal">
        <lane id=":15_2_0" index="0" speed="14.00" length="14.40" shape="1989.60,-4.80 2004.00,-4.80"/>
        <lane id=":15_2_1" index="1" speed="14.00" length="14.40" shape="1989.60,-1.60 2004.00,-1.60"/>
    </edge>
    <edge id=":16_0" function="internal">
        <lane id=":16_0_0" index="0" speed="3.90" length="2.58" shape="2493.60,1995.20 2494.30,1995.10 2494.80,1994.80 2495.10,1994.30 2495.20,1993.60"/>
    </edge>
    <edge id=":16_1" function="internal">
        <lane id=":16_1_0" index="0" speed="6.08" length="7.74" shape="2493.60,1998.40 2495.70,1998.10 2497.20,1997.20 2498.10,1995.70 2498.40,1993.60"/>
    </edge>
    <edge id=":17_0" function="internal">
        <lane id=":17_0_0" index="0" speed="14.00" length="14.40" shape="2495.20,1004.00 2495.20,989.60"/>
        <lane id=":17_0_1" index="1" speed="14.00" length="14.40" shape="2498.40,1004.00 2498.40,989.60"/>
    </edge>
    <edge id=":17_2" function="internal">
        <lane id=":17_2_0" index="0" speed="6.51" length="9.03" shape="2489.60,995.20 2492.05,994.85 2493.80,993.80 2494.85,992.05 2495.20,989.60"/>
    </edge>
    <edge id=":17_3" function="internal">
        <lane id=":17_3_0" index="0" speed="8.00" length="14.19" shape="2489.60,998.40 2493.45,997.85 2496.20,996.20 2497.85,993.45 2498.40,989.60"/>
    </edge>
    <edge id=":2_0" function="internal">
        <lane id=":2_0_0" index="0" speed="14.00" length="14.40" shape="-4.80,1004.00 -4.80,989.60"/>
        <lane id=":2_0_1" index="1" speed="14.00" length="14.40" shape="-1.60,1004.00 -1.60,989.60"/>
    </edge>
    <edge id=":2_2" function="internal">
        <lane id=":2_2_0" index="0" speed="7.33" length="11.73" shape="-1.60,1004.00 -1.25,1000.15 -0.20,997.40 1.55,995.75 4.00,995.20"/>
    </edge>
    <edge id=":2_3" function="internal">
        <lane id=":2_3_0" index="0" speed="6.51" length="9.03" shape="-1.60,1004.00 -1.25,1001.55 -0.20,999.80 1.55,998.75 4.00,998.40"/>
    </edge>
    <edge id=":3_0" function="internal">
        <lane id=":3_0_0" index="0" speed="6.08" length="7.74" shape="-4.80,0.00 -4.50,-2.10 -3.60,-3.60 -2.10,-4.50 0.00,-4.80"/>
    </edge>
    <edge id=":3_1" function="internal">
        <lane id=":3_1_0" index="0" speed="3.90" length="2.58" shape="-1.60,0.00 -1.50,-0.70 -1.20,-1.20 -0.70,-1.50 0.00,-1.60"/>
    </edge>
    <edge id=":4_0" function="internal">
        <lane id=":4_0_0" index="0" speed="6.51" length="9.03" shape="489.60,1995.20 492.05,1994.85 493.80,1993.80 494.85,1992.05 495.20,1989.60"/>
    </edge>
    <edge id=":4_1" function="internal">
        <lane id=":4_1_0" index="0" speed="7.33" length="11.73" shape="489.60,1995.20 493.45,1994.85 496.20,1993.80 497.85,1992.05 498.40,1989.60"/>
    </edge>
    <edge id=":4_2" function="internal">
        <lane id=":4_2_0" index="0" speed="14.00" length="14.40" shape="489.60,1995.20 504.00,1995.20"/>
        <lane id=":4_2_1" index="1" speed="14.00" length="14.40" shape="489.60,1998.40 504.00,1998.40"/>
    </edge>
    <edge id=":5_0" function="internal">
        <lane id=":5_0_0" index="0" speed="14.00" length="14.40" shape="495.20,1004.00 495.20,989.60"/>
        <lane id=":5_0_1" index="1" speed="14.00" length="14.40" shape="498.40,1004.00 498.40,989.60"/>
    </edge>
    <edge id=":5_2" function="internal">
        <lane id=":5_2_0" index="0" speed="6.51" length="4.28" shape="498.40,1004.00 498.75,1001.55 499.68,1000.00"/>
    </edge>
    <edge id=":5_6" function="internal">
        <lane id=":5_6_0" index="0" speed="6.51" length="4.75" shape="499.68,1000.00 499.80,999.80 501.55,998.75 504.00,998.40"/>
    </edge>
    <edge id=":5_3" function="internal">
        <lane id=":5_3_0" index="0" speed="6.51" length="9.03" shape="489.60,995.20 492.05,994.85 493.80,993.80 494.85,992.05 495.20,989.60"/>
    </edge>
    <edge id=":5_4" function="internal">
        <lane id=":5_4_0" index="0" speed="14.00" length="14.40" shape="489.60,995.20 504.00,995.20"/>
        <lane id=":5_4_1" index="1" speed="14.00" length="14.40" shape="489.60,998.40 504.00,998.40"/>
    </edge>
    <edge id=":6_0" function="internal">
        <lane id=":6_0_0" index="0" speed="8.00" length="4.06" shape="495.20,4.00 495.75,0.15 495.84,0.00"/>
    </edge>
    <edge id=":6_1" function="internal">
        <lane id=":6_1_0" index="0" speed="6.51" length="4.28" shape="498.40,4.00 498.75,1.55 499.68,0.00"/>
    </edge>
    <edge id=":6_4" function="internal">
        <lane id=":6_4_0" index="0" speed="8.00" length="10.13" shape="495.84,0.00 497.40,-2.60 500.15,-4.25 504.00,-4.80"/>
    </edge>
    <edge id=":6_5" function="internal">
        <lane id=":6_5_0" index="0" speed="6.51" length="4.75" shape="499.68,0.00 499.80,-0.20 501.55,-1.25 504.00,-1.60"/>
    </edge>
    <edge id=":6_2" function="internal">
        <lane id=":6_2_0" index="0" speed="14.00" length="14.40" shape="489.60,-4.80 504.00,-4.80"/>
        <lane id=":6_2_1" index="1" speed="14.00" length="14.40" shape="489.60,-1.60 504.00,-1.60"/>
    </edge>
    <edge id=":7_0" function="internal">
        <lane id=":7_0_0" index="0" speed="6.51" length="9.03" shape="989.60,1995.20 992.05,1994.85 993.80,1993.80 994.85,1992.05 995.20,1989.60"/>
    </edge>
    <edge id=":7_1" function="internal">
        <lane id=":7_1_0" index="0" speed="7.33" length="11.73" shape="989.60,1995.20 993.45,1994.85 996.20,1993.80 997.85,1992.05 998.40,1989.60"/>
    </edge>
    <edge id=":7_2" function="internal">
        <lane id=":7_2_0" index="0" speed="14.00" length="14.40" shape="989.60,1995.20 1004.00,1995.20"/>
        <lane id=":7_2_1" index="1" speed="14.00" length="14.40" shape="989.60,1998.40 1004.00,1998.40"/>
    </edge>
    <edge id=":8_0" function="internal">
        <lane id=":8_0_0" index="0" speed="14.00" length="14.40" shape="995.20,1004.00 995.20,989.60"/>
        <lane id=":8_0_1" index="1" speed="14.00" length="14.40" shape="998.40,1004.00 998.40,989.60"/>
    </edge>
    <edge id=":8_2" function="internal">
        <lane id=":8_2_0" index="0" speed="6.51" length="4.28" shape="998.40,1004.00 998.75,1001.55 999.68,1000.00"/>
    </edge>
    <edge id=":8_6" function="internal">
        <lane id=":8_6_0" index="0" speed="6.51" length="4.75" shape="999.68,1000.00 999.80,999.80 1001.55,998.75 1004.00,998.40"/>
    </edge>
    <edge id=":8_3" function="internal">
        <lane id=":8_3_0" index="0" speed="6.51" length="9.03" shape="989.60,995.20 992.05,994.85 993.80,993.80 994.85,992.05 995.20,989.60"/>
    </edge>
    <edge id=":8_4" function="internal">
        <lane id=":8_4_0" index="0" speed="14.00" length="14.40" shape="989.60,995.20 1004.00,995.20"/>
        <lane id=":8_4_1" index="1" speed="14.00" length="14.40" shape="989.60,998.40 1004.00,998.40"/>
    </edge>
    <edge id=":9_0" function="internal">
        <lane id=":9_0_0" index="0" speed="8.00" length="4.06" shape="995.20,4.00 995.75,0.15 995.84,-0.00"/>
    </edge>
    <edge id=":9_1" function="internal">
        <lane id=":9_1_0" index="0" speed="6.51" length="4.28" shape="998.40,4.00 998.75,1.55 999.68,0.00"/>
    </edge>
    <edge id=":9_4" function="internal">
        <lane id=":9_4_0" index="0" speed="8.00" length="10.13" shape="995.84,-0.00 997.40,-2.60 1000.15,-4.25 1004.00,-4.80"/>
    </edge>
    <edge id=":9_5" function="internal">
        <lane id=":9_5_0" index="0" speed="6.51" length="4.75" shape="999.68,0.00 999.80,-0.20 1001.55,-1.25 1004.00,-1.60"/>
    </edge>
    <edge id=":9_2" function="internal">
        <lane id=":9_2_0" index="0" speed="14.00" length="14.40" shape="989.60,-4.80 1004.00,-4.80"/>
        <lane id=":9_2_1" index="1" speed="14.00" length="14.40" shape="989.60,-1.60 1004.00,-1.60"/>
    </edge>

    <edge id="e1" from="1" to="2" priority="2">
        <lane id="e1_0" index="0" speed="14.00" length="988.10" shape="-4.80,1992.10 -4.80,1004.00"/>
        <lane id="e1_1" index="1" speed="14.00" length="988.10" shape="-1.60,1992.10 -1.60,1004.00"/>
    </edge>
    <edge id="e10" from="14" to="15" priority="2">
        <lane id="e10_0" index="0" speed="14.00" length="985.60" shape="1995.20,989.60 1995.20,4.00"/>
        <lane id="e10_1" index="1" speed="14.00" length="985.60" shape="1998.40,989.60 1998.40,4.00"/>
    </edge>
    <edge id="e11" from="16" to="17" priority="2">
        <lane id="e11_0" index="0" speed="14.00" length="989.60" shape="2495.20,1993.60 2495.20,1004.00"/>
        <lane id="e11_1" index="1" speed="14.00" length="989.60" shape="2498.40,1993.60 2498.40,1004.00"/>
    </edge>
    <edge id="e12" from="17" to="18" priority="2">
        <lane id="e12_0" index="0" speed="14.00" length="988.10" shape="2495.20,989.60 2495.20,1.50"/>
        <lane id="e12_1" index="1" speed="14.00" length="988.10" shape="2498.40,989.60 2498.40,1.50"/>
    </edge>
    <edge id="e13" from="1" to="4" priority="2">
        <lane id="e13_0" index="0" speed="14.00" length="488.10" shape="1.50,1995.20 489.60,1995.20"/>
        <lane id="e13_1" index="1" speed="14.00" length="488.10" shape="1.50,1998.40 489.60,1998.40"/>
    </edge>
    <edge id="e14" from="4" to="7" priority="2">
        <lane id="e14_0" index="0" speed="14.00" length="485.60" shape="504.00,1995.20 989.60,1995.20"/>
        <lane id="e14_1" index="1" speed="14.00" length="485.60" shape="504.00,1998.40 989.60,1998.40"/>
    </edge>
    <edge id="e15" from="7" to="10" priority="2">
        <lane id="e15_0" index="0" speed="14.00" length="485.60" shape="1004.00,1995.20 1489.60,1995.20"/>
        <lane id="e15_1" index="1" speed="14.00" length="485.60" shape="1004.00,1998.40 1489.60,1998.40"/>
    </edge>
    <edge id="e16" from="10" to="13" priority="2">
        <lane id="e16_0" index="0" speed="14.00" length="485.60" shape="1504.00,1995.20 1989.60,1995.20"/>
        <lane id="e16_1" index="1" speed="14.00" length="485.60" shape="1504.00,1998.40 1989.60,1998.40"/>
    </edge>
    <edge id="e17" from="13" to="16" priority="2">
        <lane id="e17_0" index="0" speed="14.00" length="489.60" shape="2004.00,1995.20 2493.60,1995.20"/>
        <lane id="e17_1" index="1" speed="14.00" length="489.60" shape="2004.00,1998.40 2493.60,1998.40"/>
    </edge>
    <edge id="e18" from="2" to="5" priority="2">
        <lane id="e18_0" index="0" speed="14.00" length="485.60" shape="4.00,995.20 489.60,995.20"/>
        <lane id="e18_1" index="1" speed="14.00" length="485.60" shape="4.00,998.40 489.60,998.40"/>
    </edge>
    <edge id="e19" from="5" to="8" priority="2">
        <lane id="e19_0" index="0" speed="14.00" length="485.60" shape="504.00,995.20 989.60,995.20"/>
        <lane id="e19_1" index="1" speed="14.00" length="485.60" shape="504.00,998.40 989.60,998.40"/>
    </edge>
    <edge id="e2" from="2" to="3" priority="2">
        <lane id="e2_0" index="0" speed="14.00" length="989.60" shape="-4.80,989.60 -4.80,0.00"/>
        <lane id="e2_1" index="1" speed="14.00" length="989.60" shape="-1.60,989.60 -1.60,0.00"/>
    </edge>
    <edge id="e20" from="8" to="11" priority="2">
        <lane id="e20_0" index="0" speed="14.00" length="485.60" shape="1004.00,995.20 1489.60,995.20"/>
        <lane id="e20_1" index="1" speed="14.00" length="485.60" shape="1004.00,998.40 1489.60,998.40"/>
    </edge>
    <edge id="e21" from="11" to="14" priority="2">
        <lane id="e21_0" index="0" speed="14.00" length="485.60" shape="1504.00,995.20 1989.60,995.20"/>
        <lane id="e21_1" index="1" speed="14.00" length="485.60" shape="1504.00,998.40 1989.60,998.40"/>
    </edge>
    <edge id="e22" from="14" to="17" priority="2">
        <lane id="e22_0" index="0" speed="14.00" length="485.60" shape="2004.00,995.20 2489.60,995.20"/>
        <lane id="e22_1" index="1" speed="14.00" length="485.60" shape="2004.00,998.40 2489.60,998.40"/>
    </edge>
    <edge id="e23" from="3" to="6" priority="2">
        <lane id="e23_0" index="0" speed="14.00" length="489.60" shape="0.00,-4.80 489.60,-4.80"/>
        <lane id="e23_1" index="1" speed="14.00" length="489.60" shape="0.00,-1.60 489.60,-1.60"/>
    </edge>
    <edge id="e24" from="6" to="9" priority="2">
        <lane id="e24_0" index="0" speed="14.00" length="485.60" shape="504.00,-4.80 989.60,-4.80"/>
        <lane id="e24_1" index="1" speed="14.00" length="485.60" shape="504.00,-1.60 989.60,-1.60"/>
    </edge>
    <edge id="e25" from="9" to="12" priority="2">
        <lane id="e25_0" index="0" speed="14.00" length="485.60" shape="1004.00,-4.80 1489.60,-4.80"/>
        <lane id="e25_1" index="1" speed="14.00" length="485.60" shape="1004.00,-1.60 1489.60,-1.60"/>
    </edge>
    <edge id="e26" from="12" to="15" priority="2">
        <lane id="e26_0" index="0" speed="14.00" length="485.60" shape="1504.00,-4.80 1989.60,-4.80"/>
        <lane id="e26_1" index="1" speed="14.00" length="485.60" shape="1504.00,-1.60 1989.60,-1.60"/>
    </edge>
    <edge id="e27" from="15" to="18" priority="2">
        <lane id="e27_0" index="0" speed="14.00" length="488.10" shape="2004.00,-4.80 2492.10,-4.80"/>
        <lane id="e27_1" index="1" speed="14.00" length="488.10" shape="2004.00,-1.60 2492.10,-1.60"/>
    </edge>
    <edge id="e3" from="4" to="5" priority="2">
        <lane id="e3_0" index="0" speed="14.00" length="985.60" shape="495.20,1989.60 495.20,1004.00"/>
        <lane id="e3_1" index="1" speed="14.00" length="985.60" shape="498.40,1989.60 498.40,1004.00"/>
    </edge>
    <edge id="e4" from="5" to="6" priority="2">
        <lane id="e4_0" index="0" speed="14.00" length="985.60" shape="495.20,989.60 495.20,4.00"/>
        <lane id="e4_1" index="1" speed="14.00" length="985.60" shape="498.40,989.60 498.40,4.00"/>
    </edge>
    <edge id="e5" from="7" to="8" priority="2">
        <lane id="e5_0" index="0" speed="14.00" length="985.60" shape="995.20,1989.60 995.20,1004.00"/>
        <lane id="e5_1" index="1" speed="14.00" length="985.60" shape="998.40,1989.60 998.40,1004.00"/>
    </edge>
    <edge id="e6" from="8" to="9" priority="2">
        <lane id="e6_0" index="0" speed="14.00" length="985.60" shape="995.20,989.60 995.20,4.00"/>
        <lane id="e6_1" index="1" speed="14.00" length="985.60" shape="998.40,989.60 998.40,4.00"/>
    </edge>
    <edge id="e7" from="10" to="11" priority="2">
        <lane id="e7_0" index="0" speed="14.00" length="985.60" shape="1495.20,1989.60 1495.20,1004.00"/>
        <lane id="e7_1" index="1" speed="14.00" length="985.60" shape="1498.40,1989.60 1498.40,1004.00"/>
    </edge>
    <edge id="e8" from="11" to="12" priority="2">
        <lane id="e8_0" index="0" speed="14.00" length="985.60" shape="1495.20,989.60 1495.20,4.00"/>
        <lane id="e8_1" index="1" speed="14.00" length="985.60" shape="1498.40,989.60 1498.40,4.00"/>
    </edge>
    <edge id="e9" from="13" to="14" priority="2">
        <lane id="e9_0" index="0" speed="14.00" length="985.60" shape="1995.20,1989.60 1995.20,1004.00"/>
        <lane id="e9_1" index="1" speed="14.00" length="985.60" shape="1998.40,1989.60 1998.40,1004.00"/>
    </edge>

    <junction id="1" type="dead_end" x="0.00" y="2000.00" incLanes="" intLanes="" shape="1.50,2000.00 1.50,1993.60 0.67,1993.43 0.38,1993.23 0.17,1992.93 0.04,1992.56 0.00,1992.10 -6.40,1992.10 -6.18,1994.51 -5.52,1996.49 -4.43,1998.03 -2.89,1999.12 -0.91,1999.78"/>
    <junction id="10" type="priority" x="1500.00" y="2000.00" incLanes="e15_0 e15_1" intLanes=":10_0_0 :10_1_0 :10_2_0 :10_2_1" shape="1504.00,2000.00 1504.00,1993.60 1501.78,1993.16 1501.00,1992.60 1500.44,1991.82 1500.11,1990.82 1500.00,1989.60 1493.60,1989.60 1493.16,1991.82 1492.60,1992.60 1491.82,1993.16 1490.82,1993.49 1489.60,1993.60 1489.60,2000.00">
        <request index="0" response="0000" foes="0000" cont="0"/>
        <request index="1" response="0000" foes="0000" cont="0"/>
        <request index="2" response="0000" foes="0000" cont="0"/>
        <request index="3" response="0000" foes="0000" cont="0"/>
    </junction>
    <junction id="11" type="priority" x="1500.00" y="1000.00" incLanes="e7_0 e7_1 e20_0 e20_1" intLanes=":11_0_0 :11_0_1 :11_6_0 :11_3_0 :11_4_0 :11_4_1" shape="1493.60,1004.00 1500.00,1004.00 1500.44,1001.78 1501.00,1001.00 1501.78,1000.44 1502.78,1000.11 1504.00,1000.00 1504.00,993.60 1501.78,993.16 1501.00,992.60 1500.44,991.82 1500.11,990.82 1500.00,989.60 1493.60,989.60 1493.16,991.82 1492.60,992.60 1491.82,993.16 1490.82,993.49 1489.60,993.60 1489.60,1000.00 1491.82,1000.44 1492.60,1001.00 1493.16,1001.78 1493.49,1002.78">
        <request index="0" response="111000" foes="111000" cont="0"/>
        <request index="1" response="111000" foes="111000" cont="0"/>
        <request index="2" response="110000" foes="110000" cont="1"/>
        <request index="3" response="000000" foes="000011" cont="0"/>
        <request index="4" response="000000" foes="000111" cont="0"/>
        <request index="5" response="000000" foes="000111" cont="0"/>
    </junction>
    <junction id="12" type="priority" x="1500.00" y="0.00" incLanes="e8_0 e8_1 e25_0 e25_1" intLanes=":12_4_0 :12_5_0 :12_2_0 :12_2_1" shape="1493.60,4.00 1500.00,4.00 1500.44,1.78 1501.00,1.00 1501.78,0.44 1502.78,0.11 1504.00,0.00 1504.00,-6.40 1489.60,-6.40 1489.60,0.00 1491.82,0.44 1492.60,1.00 1493.16,1.78 1493.49,2.78">
        <request index="0" response="1100" foes="1100" cont="1"/>
        <request index="1" response="1100" foes="1100" cont="1"/>
        <request index="2" response="0000" foes="0011" cont="0"/>
        <request index="3" response="0000" foes="0011" cont="0"/>
    </junction>
    <junction id="13" type="priority" x="2000.00" y="2000.00" incLanes="e16_0 e16_1" intLanes=":13_0_0 :13_1_0 :13_2_0 :13_2_1" shape="2004.00,2000.00 2004.00,1993.60 2001.78,1993.16 2001.00,1992.60 2000.44,1991.82 2000.11,1990.82 2000.00,1989.60 1993.60,1989.60 1993.16,1991.82 1992.60,1992.60 1991.82,1993.16 1990.82,1993.49 1989.60,1993.60 1989.60,2000.00">
        <request index="0" response="0000" foes="0000" cont="0"/>
        <request index="1" response="0000" foes="0000" cont="0"/>
        <request index="2" response="0000" foes="0000" cont="0"/>
        <request index="3" response="0000" foes="0000" cont="0"/>
    </junction>
    <junction id="14" type="priority" x="2000.00" y="1000.00" incLanes="e9_0 e9_1 e21_0 e21_1" intLanes=":14_0_0 :14_0_1 :14_6_0 :14_3_0 :14_4_0 :14_4_1" shape="1993.60,1004.00 2000.00,1004.00 2000.44,1001.78 2001.00,1001.00 2001.78,1000.44 2002.78,1000.11 2004.00,1000.00 2004.00,993.60 2001.78,993.16 2001.00,992.60 2000.44,991.82 2000.11,990.82 2000.00,989.60 1993.60,989.60 1993.16,991.82 1992.60,992.60 1991.82,993.16 1990.82,993.49 1989.60,993.60 1989.60,1000.00 1991.82,1000.44 1992.60,1001.00 1993.16,1001.78 1993.49,1002.78">
        <request index="0" response="111000" foes="111000" cont="0"/>
        <request index="1" response="111000" foes="111000" cont="0"/>
        <request index="2" response="110000" foes="110000" cont="1"/>
        <request index="3" response="000000" foes="000011" cont="0"/>
        <request index="4" response="000000" foes="000111" cont="0"/>
        <request index="5" response="000000" foes="000111" cont="0"/>
    </junction>
    <junction id="15" type="priority" x="2000.00" y="0.00" incLanes="e10_0 e10_1 e26_0 e26_1" intLanes=":15_4_0 :15_5_0 :15_2_0 :15_2_1" shape="1993.60,4.00 2000.00,4.00 2000.44,1.78 2001.00,1.00 2001.78,0.44 2002.78,0.11 2004.00,0.00 2004.00,-6.40 1989.60,-6.40 1989.60,0.00 1991.82,0.44 1992.60,1.00 1993.16,1.78 1993.49,2.78">
        <request index="0" response="1100" foes="1100" cont="1"/>
        <request index="1" response="1100" foes="1100" cont="1"/>
        <request index="2" response="0000" foes="0011" cont="0"/>
        <request index="3" response="0000" foes="0011" cont="0"/>
    </junction>
    <junction id="16" type="priority" x="2500.00" y="2000.00" incLanes="e17_0 e17_1" intLanes=":16_0_0 :16_1_0" shape="2500.00,1993.60 2493.60,1993.60 2493.60,2000.00 2497.16,1999.29 2498.40,1998.40 2499.29,1997.16 2499.82,1995.56">
        <request index="0" response="00" foes="00" cont="0"/>
        <request index="1" response="00" foes="00" cont="0"/>
    </junction>
    <junction id="17" type="priority" x="2500.00" y="1000.00" incLanes="e11_0 e11_1 e22_0 e22_1" intLanes=":17_0_0 :17_0_1 :17_2_0 :17_3_0" shape="2493.60,1004.00 2500.00,1004.00 2500.00,989.60 2493.60,989.60 2493.16,991.82 2492.60,992.60 2491.82,993.16 2490.82,993.49 2489.60,993.60 2489.60,1000.00 2491.82,1000.44 2492.60,1001.00 2493.16,1001.78 2493.49,1002.78">
        <request index="0" response="1100" foes="1100" cont="0"/>
        <request index="1" response="1100" foes="1100" cont="0"/>
        <request index="2" response="0000" foes="0011" cont="0"/>
        <request index="3" response="0000" foes="0011" cont="0"/>
    </junction>
    <junction id="18" type="dead_end" x="2500.00" y="0.00" incLanes="e12_0 e12_1 e27_0 e27_1" intLanes="" shape="2493.60,1.50 2500.00,1.50 2499.78,-0.91 2499.12,-2.89 2498.03,-4.42 2496.49,-5.52 2494.51,-6.18 2492.10,-6.40 2492.10,0.00 2492.93,0.17 2493.22,0.38 2493.43,0.67 2493.56,1.04"/>
    <junction id="2" type="priority" x="0.00" y="1000.00" incLanes="e1_0 e1_1" intLanes=":2_0_0 :2_0_1 :2_2_0 :2_3_0" shape="-6.40,1004.00 0.00,1004.00 0.44,1001.78 1.00,1001.00 1.78,1000.44 2.78,1000.11 4.00,1000.00 4.00,993.60 1.78,993.16 1.00,992.60 0.44,991.82 0.11,990.82 0.00,989.60 -6.40,989.60">
        <request index="0" response="0000" foes="0000" cont="0"/>
        <request index="1" response="0000" foes="0000" cont="0"/>
        <request index="2" response="0000" foes="0000" cont="0"/>
        <request index="3" response="0000" foes="0000" cont="0"/>
    </junction>
    <junction id="3" type="priority" x="0.00" y="0.00" incLanes="e2_0 e2_1" intLanes=":3_0_0 :3_1_0" shape="-6.40,0.00 0.00,0.00 -0.00,-6.40 -3.56,-5.69 -4.80,-4.80 -5.69,-3.56 -6.22,-1.96">
        <request index="0" response="00" foes="00" cont="0"/>
        <request index="1" response="00" foes="00" cont="0"/>
    </junction>
    <junction id="4" type="priority" x="500.00" y="2000.00" incLanes="e13_0 e13_1" intLanes=":4_0_0 :4_1_0 :4_2_0 :4_2_1" shape="504.00,2000.00 504.00,1993.60 501.78,1993.16 501.00,1992.60 500.44,1991.82 500.11,1990.82 500.00,1989.60 493.60,1989.60 493.16,1991.82 492.60,1992.60 491.82,1993.16 490.82,1993.49 489.60,1993.60 489.60,2000.00">
        <request index="0" response="0000" foes="0000" cont="0"/>
        <request index="1" response="0000" foes="0000" cont="0"/>
        <request index="2" response="0000" foes="0000" cont="0"/>
        <request index="3" response="0000" foes="0000" cont="0"/>
    </junction>
    <junction id="5" type="priority" x="500.00" y="1000.00" incLanes="e3_0 e3_1 e18_0 e18_1" intLanes=":5_0_0 :5_0_1 :5_6_0 :5_3_0 :5_4_0 :5_4_1" shape="493.60,1004.00 500.00,1004.00 500.44,1001.78 501.00,1001.00 501.78,1000.44 502.78,1000.11 504.00,1000.00 504.00,993.60 501.78,993.16 501.00,992.60 500.44,991.82 500.11,990.82 500.00,989.60 493.60,989.60 493.16,991.82 492.60,992.60 491.82,993.16 490.82,993.49 489.60,993.60 489.60,1000.00 491.82,1000.44 492.60,1001.00 493.16,1001.78 493.49,1002.78">
        <request index="0" response="111000" foes="111000" cont="0"/>
        <request index="1" response="111000" foes="111000" cont="0"/>
        <request index="2" response="110000" foes="110000" cont="1"/>
        <request index="3" response="000000" foes="000011" cont="0"/>
        <request index="4" response="000000" foes="000111" cont="0"/>
        <request index="5" response="000000" foes="000111" cont="0"/>
    </junction>
    <junction id="6" type="priority" x="500.00" y="0.00" incLanes="e4_0 e4_1 e23_0 e23_1" intLanes=":6_4_0 :6_5_0 :6_2_0 :6_2_1" shape="493.60,4.00 500.00,4.00 500.44,1.78 501.00,1.00 501.78,0.44 502.78,0.11 504.00,0.00 504.00,-6.40 489.60,-6.40 489.60,0.00 491.82,0.44 492.60,1.00 493.16,1.78 493.49,2.78">
        <request index="0" response="1100" foes="1100" cont="1"/>