<?xml version="1.0" encoding="UTF-8"?>

<!-- generated on 12/10/20 10:45:34 by Eclipse SUMO duarouter Version 1.8.0
<configuration xmlns:xsi="http://www.w3.org/2001/XMLSchema-instance" xsi:noNamespaceSchemaLocation="http://sumo.dlr.de/xsd/duarouterConfiguration.xsd">

    <input>
        <net-file value="sumotest.net.xml"/>
        <route-files value="sumotest.trips.xml"/>
    </input>

    <output>
        <output-file value="sumotest.rou.xml"/>
        <alternatives-output value="sumotest.rou.alt.xml"/>
    </output>

    <report>
        <ignore-errors value="true"/>
    </report>

</configuration>
-->

<routes xmlns:xsi="http://www.w3.org/2001/XMLSchema-instance" xsi:noNamespaceSchemaLocation="http://sumo.dlr.de/xsd/routes_file.xsd">
    <vehicle id="1" depart="1.00">
        <route edges="e16"/>
    </vehicle>
    <vehicle id="2" depart="2.00">
        <route edges="e3 e4 e24 e25 e26"/>
    </vehicle>
    <vehicle id="3" depart="3.00">
        <route edges="e7 e21 e22 e12"/>
    </vehicle>
    <vehicle id="5" depart="5.00">
        <route edges="e15 e16 e9 e22"/>
    </vehicle>
    <vehicle id="9" depart="9.00">
        <route edges="e5 e20 e21 e10"/>
    </vehicle>
    <vehicle id="10" depart="10.00">
        <route edges="e5 e6 e25 e26 e27"/>
    </vehicle>
    <vehicle id="13" depart="13.00">
        <route edges="e11 e12"/>
    </vehicle>
    <vehicle id="14" depart="14.00">
        <route edges="e6 e25"/>
    </vehicle>
    <vehicle id="18" depart="18.00">
        <route edges="e5 e6 e25"/>
    </vehicle>
    <vehicle id="27" depart="27.00">
        <route edges="e25"/>
    </vehicle>
    <vehicle id="33" depart="33.00">
        <route edges="e15 e16 e9 e10"/>
    </vehicle>
    <vehicle id="34" depart="34.00">
        <route edges="e17"/>
    </vehicle>
    <vehicle id="35" depart="35.00">
        <route edges="e15 e7 e8"/>
    </vehicle>
    <vehicle id="38" depart="38.00">
        <route edges="e7 e21"/>
    </vehicle>
    <vehicle id="39" depart="39.00">
        <route edges="e16 e17"/>
    </vehicle>
    <vehicle id="43" depart="43.00">
        <route edges="e9 e22"/>
    </vehicle>
    <vehicle id="44" depart="44.00">
        <route edges="e11"/>
    </vehicle>
    <vehicle id="54" depart="54.00">
        <route edges="e20 e8"/>
    </vehicle>
    <vehicle id="62" depart="62.00">
        <route edges="e1 e18 e19"/>
    </vehicle>
    <vehicle id="63" depart="63.00">
        <route edges="e1 e18 e19 e20 e8"/>
    </vehicle>
    <vehicle id="65" depart="65.00">
        <route edges="e17 e11"/>
    </vehicle>
    <vehicle id="77" depart="77.00">
        <route edges="e13 e14 e15 e16"/>
    </vehicle>
    <vehicle id="78" depart="78.00">
        <route edges="e18 e4 e24"/>
    </vehicle>
    <vehicle id="79" depart="79.00">
        <route edges="e15 e16"/>
    </vehicle>
    <vehicle id="81" depart="81.00">
        <route edges="e15 e7"/>
    </vehicle>
    <vehicle id="83" depart="83.00">
        <route edges="e15 e7 e8 e26"/>
    </vehicle>
    <vehicle id="90" depart="90.00">
        <route edges="e3 e4 e24 e25 e26"/>
    </vehicle>
    <vehicle id="91" depart="91.00">
        <route edges="e9 e22 e12"/>
    </vehicle>
    <vehicle id="94" depart="94.00">
        <route edges="e14 e15 e7 e21"/>
    </vehicle>
    <vehicle id="106" depart="106.00">
        <route edges="e20"/>
    </vehicle>
    <vehicle id="114" depart="114.00">
        <route edges="e13 e14 e15 e16 e9"/>
    </vehicle>
    <vehicle id="116" depart="116.00">
        <route edges="e23 e24 e25 e26"/>
    </vehicle>
    <vehicle id="117" depart="117.00">
        <route edges="e15 e16 e17 e11 e12"/>
    </vehicle>
    <vehicle id="119" depart="119.00">
        <route edges="e23 e24 e25"/>
    </vehicle>
    <vehicle id="120" depart="120.00">
        <route edges="e2 e23 e24"/>
    </vehicle>
    <vehicle id="122" depart="122.00">
        <route edges="e15 e16 e9 e10 e27"/>
    </vehicle>
    <vehicle id="127" depart="127.00">
        <route edges="e9"/>
    </vehicle>
    <vehicle id="132" depart="132.00">
        <route edges="e5 e6 e25 e26 e27"/>
    </vehicle>
    <vehicle id="137" depart="137.00">
        <route edges="e13 e14 e15 e16 e17 e11 e12"/>
    </vehicle>
    <vehicle id="145" depart="145.00">
        <route edges="e1 e18 e4"/>
    </vehicle>
    <vehicle id="152" depart="152.00">
        <route edges="e13 e14"/>
    </vehicle>
    <vehicle id="156" depart="156.00">
        <route edges="e16 e17 e11 e12"/>
    </vehicle>
    <vehicle id="158" depart="158.00">
        <route edges="e2 e23 e24 e25"/>
    </vehicle>
    <vehicle id="159" depart="159.00">
        <route edges="e13 e14 e15 e7 e8"/>
    </vehicle>
    <vehicle id="163" depart="163.00">
        <route edges="e18 e19 e20 e8"/>
    </vehicle>
    <vehicle id="164" depart="164.00">
        <route edges="e5 e6"/>
    </vehicle>
    <vehicle id="167" depart="167.00">
        <route edges="e6"/>
    </vehicle>
    <vehicle id="172" depart="172.00">
        <route edges="e18 e19 e6"/>
    </vehicle>
    <vehicle id="183" depart="183.00">
        <route edges="e16 e9 e10 e27"/>
    </vehicle>
    <vehicle id="184" depart="184.00">
        <route edges="e1 e18 e19 e20 e8"/>
    </vehicle>
    <vehicle id="186" depart="186.00">
        <route edges="e3 e4 e24 e25 e26"/>
    </vehicle>
    <vehicle id="193" depart="193.00">
        <route edges="e13 e14 e5 e20"/>
    </vehicle>
    <vehicle id="194" depart="194.00">
        <route edges="e8 e26"/>
    </vehicle>
    <vehicle id="197" depart="197.00">
        <route edges="e1 e18"/>
    </vehicle>
    <vehicle id="198" depart="198.00">
        <route edges="e2 e23 e24"/>
    </vehicle>
    <vehicle id="207" depart="207.00">
        <route edges="e14 e15 e16 e9 e10"/>
    </vehicle>
    <vehicle id="210" depart="210.00">
        <route edges="e2 e23 e24 e25"/>
    </vehicle>
    <vehicle id="211" depart="211.00">
        <route edges="e14 e15 e16 e9 e10 e27"/>
    </vehicle>
    <vehicle id="214" depart="214.00">
        <route edges="e3 e4"/>
    </vehicle>
    <vehicle id="216" depart="216.00">
        <route edges="e14 e15 e7 e8"/>
    </vehicle>
    <vehicle id="233" depart="233.00">
        <route edges="e15 e16 e9 e10 e27"/>
    </vehicle>
    <vehicle id="235" depart="235.00">
        <route edges="e2 e23"/>
    </vehicle>
    <vehicle id="238" depart="238.00">
        <route edges="e23 e24 e25 e26 e27"/>
    </vehicle>
    <vehicle id="240" depart="240.00">
        <route edges="e19 e20 e21 e10"/>
    </vehicle>
    <vehicle id="245" depart="245.00">
        <route edges="e15 e16"/>
    </vehicle>
    <vehicle id="247" depart="247.00">
        <route edges="e18 e19 e20 e8 e26"/>
    </vehicle>
    <vehicle id="252" depart="252.00">
        <route edges="e1 e2 e23 e24 e25 e26"/>
    </vehicle>
    <vehicle id="253" depart="253.00">
        <route edges="e13 e14 e15 e7 e21"/>
    </vehicle>
    <vehicle id="258" depart="258.00">
        <route edges="e16 e17 e11 e12"/>
    </vehicle>
    <vehicle id="259" depart="259.00">
        <route edges="e1 e2 e23"/>
    </vehicle>
    <vehicle id="265" depart="265.00">
        <route edges="e13 e14 e15 e7 e8 e26"/>
    </vehicle>
    <vehicle id="268" depart="268.00">
        <route edges="e14 e5 e6 e25"/>
    </vehicle>
    <vehicle id="269" depart="269.00">
        <route edges="e3 e19 e20 e21 e22 e12"/>
    </vehicle>
    <vehicle id="277" depart="277.00">
        <route edges="e6 e25"/>
    </vehicle>
    <vehicle id="278" depart="278.00">
        <route edges="e13 e14 e15 e16 e9"/>
    </vehicle>
    <vehicle id="280" depart="280.00">
        <route edges="e2"/>
    </vehicle>
    <vehicle id="288" depart="288.00">
        <route edges="e22"/>
    </vehicle>
    <vehicle id="291" depart="291.00">
        <route edges="e5 e20 e21 e22 e12"/>
    </vehicle>
    <vehicle id="294" depart="294.00">
        <route edges="e19 e20 e21 e10"/>
    </vehicle>
    <vehicle id="299" depart="299.00">
        <route edges="e1 e18 e19 e20 e8"/>
    </vehicle>
    <vehicle id="302" depart="302.00">
        <route edges="e26"/>
    </vehicle>
    <vehicle id="308" depart="308.00">
        <route edges="e3 e19"/>
    </vehicle>
    <vehicle id="311" depart="311.00">
        <route edges="e14 e15 e16 e17 e11 e12"/>
    </vehicle>
    <vehicle id="313" depart="313.00">
        <route edges="e14 e15 e16"/>
    </vehicle>
    <vehicle id="316" depart="316.00">
        <route edges="e17 e11 e12"/>
    </vehicle>
    <vehicle id="317" depart="317.00">
        <route edges="e14 e15 e16"/>
    </vehicle>
    <vehicle id="318" depart="318.00">
        <route edges="e14 e15 e16 e9 e10"/>
    </vehicle>
    <vehicle id="324" depart="324.00">
        <route edges="e20 e21"/>
    </vehicle>
    <vehicle id="325" depart="325.00">
        <route edges="e14 e15 e16 e17 e11"/>
    </vehicle>
    <vehicle id="327" depart="327.00">
        <route edges="e5 e20"/>
    </vehicle>
    <vehicle id="331" depart="331.00">
        <route edges="e9 e22 e12"/>
    </vehicle>
    <vehicle id="332" depart="332.00">
        <route edges="e4 e24 e25"/>
    </vehicle>
    <vehicle id="337" depart="337.00">
        <route edges="e24 e25"/>
    </vehicle>
    <vehicle id="338" depart="338.00">
        <route edges="e3 e19 e20 e8"/>
    </vehicle>
    <vehicle id="339" depart="339.00">
        <route edges="e15 e16"/>
    </vehicle>
    <vehicle id="341" depart="341.00">
        <route edges="e14 e15 e16 e17 e11"/>
    </vehicle>
    <vehicle id="342" depart="342.00">
        <route edges="e1 e18 e19 e20 e21"/>
    </vehicle>
    <vehicle id="344" depart="344.00">
        <route edges="e15 e16 e9 e10 e27"/>
    </vehicle>
    <vehicle id="347" depart="347.00">
        <route edges="e4 e24 e25"/>
    </vehicle>
    <vehicle id="349" depart="349.00">
        <route edges="e2 e23"/>
    </vehicle>
    <vehicle id="353" depart="353.00">
        <route edges="e3 e4 e24"/>
    </vehicle>
    <vehicle id="355" depart="355.00">
        <route edges="e26 e27"/>
    </vehicle>
    <vehicle id="357" depart="357.00">
        <route edges="e21 e22 e12"/>
    </vehicle>
    <vehicle id="358" depart="358.00">
        <route edges="e1 e18 e19 e20"/>
    </vehicle>
    <vehicle id="365" depart="365.00">
        <route edges="e20 e8 e26"/>
    </vehicle>
    <vehicle id="367" depart="367.00">
        <route edges="e23 e24 e25"/>
    </vehicle>
    <vehicle id="368" depart="368.00">
        <route edges="e21 e22 e12"/>
    </vehicle>
    <vehicle id="369" depart="369.00">
        <route edges="e18 e19"/>
    </vehicle>
    <vehicle id="371" depart="371.00">
        <route edges="e18 e19 e20 e21 e10 e27"/>
    </vehicle>
    <vehicle id="380" depart="380.00">
        <route edges="e3 e4 e24 e25"/>
    </vehicle>
    <vehicle id="383" depart="383.00">
        <route edges="e2 e23 e24 e25 e26 e27"/>
    </vehicle>
    <vehicle id="384" depart="384.00">
        <route edges="e13 e14 e15 e16 e9"/>
    </vehicle>
    <vehicle id="387" depart="387.00">
        <route edges="e22 e12"/>
    </vehicle>
    <vehicle id="389" depart="389.00">
        <route edges="e20 e21 e22 e12"/>
    </vehicle>
    <vehicle id="390" depart="390.00">
        <route edges="e5 e20 e21 e22"/>
    </vehicle>
    <vehicle id="396" depart="396.00">
        <route edges="e6"/>
    </vehicle>
    <vehicle id="406" depart="406.00">
        <route edges="e14 e15 e16 e9 e10 e27"/>
    </vehicle>
    <vehicle id="409" depart="409.00">
        <route edges="e3 e4 e24 e25 e26 e27"/>
    </vehicle>
    <vehicle id="412" depart="412.00">
        <route edges="e9 e22"/>
    </vehicle>
    <vehicle id="413" depart="413.00">
        <route edges="e1 e18 e19 e20 e21 e22"/>
    </vehicle>
    <vehicle id="417" depart="417.00">
        <route edges="e3 e19 e20"/>
    </vehicle>
    <vehicle id="420" depart="420.00">
        <route edges="e18 e19 e20 e21 e10 e27"/>
    </vehicle>
    <vehicle id="422" depart="422.00">
        <route edges="e6"/>
    </vehicle>
    <vehicle id="428" depart="428.00">
        <route edges="e3 e19 e20"/>
    </vehicle>
    <vehicle id="436" depart="436.00">
        <route edges="e14 e15 e16 e17 e11"/>
    </vehicle>
    <vehicle id="437" depart="437.00">
        <route edges="e6 e25"/>
    </vehicle>
    <vehicle id="439" depart="439.00">
        <route edges="e13 e14 e15 e7 e21"/>
    </vehicle>
    <vehicle id="440" depart="440.00">
        <route edges="e16 e17"/>
    </vehicle>
    <vehicle id="442" depart="442.00">
        <route edges="e7 e8 e26"/>
    </vehicle>
    <vehicle id="443" depart="443.00">
        <route edges="e13 e14 e15 e7 e21"/>
    </vehicle>
    <vehicle id="444" depart="444.00">
        <route edges="e18 e4 e24"/>
    </vehicle>
    <vehicle id="449" depart="449.00">
        <route edges="e23 e24"/>
    </vehicle>
    <vehicle id="458" depart="458.00">
        <route edges="e24 e25"/>
    </vehicle>
    <vehicle id="464" depart="464.00">
        <route edges="e3 e19 e20 e21 e22 e12"/>
    </vehicle>
    <vehicle id="466" depart="466.00">
        <route edges="e14"/>
    </vehicle>
    <vehicle id="470" depart="470.00">
        <route edges="e5 e20 e21 e22"/>
    </vehicle>
    <vehicle id="472" depart="472.00">
        <route edges="e18 e19 e20 e21 e22 e12"/>
    </vehicle>
    <vehicle id="478" depart="478.00">
        <route edges="e1 e2 e23"/>
    </vehicle>
    <vehicle id="479" depart="479.00">
        <route edges="e20 e8 e26"/>
    </vehicle>
    <vehicle id="481" depart="481.00">
        <route edges="e5 e20 e8"/>
    </vehicle>
    <vehicle id="485" depart="485.00">
        <route edges="e15 e16 e17 e11"/>
    </vehicle>
    <vehicle id="488" depart="488.00">
        <route edges="e13 e14 e15 e7 e8"/>
    </vehicle>
    <vehicle id="491" depart="491.00">
        <route edges="e13 e14 e15 e7 e21"/>
    </vehicle>
    <vehicle id="498" depart="498.00">
        <route edges="e19 e20 e21"/>
    </vehicle>
    <vehicle id="503" depart="503.00">
        <route edges="e14"/>
    </vehicle>
    <vehicle id="505" depart="505.00">
        <route edges="e25 e26"/>
    </vehicle>
    <vehicle id="508" depart="508.00">
        <route edges="e13 e3 e4 e24"/>
    </vehicle>
    <vehicle id="510" depart="510.00">
        <route edges="e15 e16"/>
    </vehicle>
    <vehicle id="512" depart="512.00">
        <route edges="e13 e14 e15 e7"/>
    </vehicle>
    <vehicle id="513" depart="513.00">
        <route edges="e1 e18 e19 e6"/>
    </vehicle>
    <vehicle id="514" depart="514.00">
        <route edges="e13 e14"/>
    </vehicle>
    <vehicle id="517" depart="517.00">
        <route edges="e1 e18 e4"/>
    </vehicle>
    <vehicle id="519" depart="519.00">
        <route edges="e14 e15 e16 e17 e11"/>
    </vehicle>
    <vehicle id="521" depart="521.00">
        <route edges="e3 e19 e20 e21"/>
    </vehicle>
    <vehicle id="528" depart="528.00">
        <route edges="e20"/>
    </vehicle>
    <vehicle id="541" depart="541.00">
        <route edges="e18 e19 e20 e21"/>
    </vehicle>
    <vehicle id="543" depart="543.00">
        <route edges="e2 e23 e24 e25 e26"/>
    </vehicle>
    <vehicle id="546" depart="546.00">
        <route edges="e5 e20 e21 e22 e12"/>
    </vehicle>
    <vehicle id="549" depart="549.00">
        <route edges="e23 e24"/>
    </vehicle>
    <vehicle id="551" depart="551.00">
        <route edges="e18 e19 e20 e8 e26"/>
    </vehicle>
    <vehicle id="552" depart="552.00">
        <route edges="e3 e19 e6"/>
    </vehicle>
    <vehicle id="561" depart="561.00">
        <route edges="e5 e6 e25"/>
    </vehicle>
    <vehicle id="566" depart="566.00">
        <route edges="e18 e19 e20 e21 e10"/>
    </vehicle>
    <vehicle id="573" depart="573.00">
        <route edges="e4 e24"/>
    </vehicle>
    <vehicle id="574" depart="574.00">
        <route edges="e11"/>
    </vehicle>
    <vehicle id="575" depart="575.00">
        <route edges="e13 e14 e5 e6 e25"/>
    </vehicle>
    <vehicle id="579" depart="579.00">
        <route edges="e3 e19 e20 e21 e22 e12"/>
    </vehicle>
    <vehicle id="584" depart="584.00">
        <route edges="e1 e18"/>
    </vehicle>
    <vehicle id="590" depart="590.00">
        <route edges="e5"/>
    </vehicle>
    <vehicle id="592" depart="592.00">
        <route edges="e10"/>
    </vehicle>
    <vehicle id="594" depart="594.00">
        <route edges="e23 e24"/>
    </vehicle>
    <vehicle id="599" depart="599.00">
        <route edges="e7 e21 e22 e12"/>
    </vehicle>
</routes>
