<?xml version="1.0" encoding="UTF-8"?>

<!-- generated on 12/10/20 10:37:41 by Eclipse SUMO netgenerate Version 1.8.0
<configuration xmlns:xsi="http://www.w3.org/2001/XMLSchema-instance" xsi:noNamespaceSchemaLocation="http://sumo.dlr.de/xsd/netgenerateConfiguration.xsd">

    <grid_network>
        <grid value="true"/>
        <grid.x-number value="6"/>
        <grid.y-number value="3"/>
        <grid.x-length value="500"/>
        <grid.y-length value="1000"/>
    </grid_network>

    <output>
        <output-file value="sumotestgen.net.xml"/>
    </output>

</configuration>
-->

<net version="1.6" junctionCornerDetail="5" limitTurnSpeed="5.50" xmlns:xsi="http://www.w3.org/2001/XMLSchema-instance" xsi:noNamespaceSchemaLocation="http://sumo.dlr.de/xsd/net_file.xsd">

    <location netOffset="0.00,0.00" convBoundary="0.00,0.00,2500.00,2000.00" origBoundary="0.00,0.00,2500.00,2000.00" projParameter="!"/>

    <edge id=":A0_0" function="internal">
        <lane id=":A0_0_0" index="0" speed="6.08" length="7.74" shape="-1.60,3.20 -1.30,1.10 -0.40,-0.40 1.10,-1.30 3.20,-1.60"/>
    </edge>
    <edge id=":A0_1" function="internal">
        <lane id=":A0_1_0" index="0" speed="3.90" length="2.58" shape="3.20,1.60 2.50,1.70 2.00,2.00 1.70,2.50 1.60,3.20"/>
    </edge>
    <edge id=":A1_0" function="internal">
        <lane id=":A1_0_0" index="0" speed="13.89" length="14.40" shape="-1.60,1007.20 -1.60,992.80"/>
    </edge>
    <edge id=":A1_1" function="internal">
        <lane id=":A1_1_0" index="0" speed="8.00" length="5.93" shape="-1.60,1007.20 -1.05,1003.35 0.00,1001.60"/>
    </edge>
    <edge id=":A1_2" function="internal">
        <lane id=":A1_2_0" index="0" speed="3.65" length="2.34" shape="-1.60,1007.20 -0.80,1006.00 0.00,1005.60"/>
    </edge>
    <edge id=":A1_9" function="internal">
        <lane id=":A1_9_0" index="0" speed="8.00" length="8.26" shape="0.00,1001.60 0.60,1000.60 3.35,998.95 7.20,998.40"/>
    </edge>
    <edge id=":A1_10" function="internal">
        <lane id=":A1_10_0" index="0" speed="3.65" length="2.34" shape="0.00,1005.60 0.80,1006.00 1.60,1007.20"/>
    </edge>
    <edge id=":A1_3" function="internal">
        <lane id=":A1_3_0" index="0" speed="6.51" length="9.03" shape="7.20,1001.60 4.75,1001.95 3.00,1003.00 1.95,1004.75 1.60,1007.20"/>
    </edge>
    <edge id=":A1_4" function="internal">
        <lane id=":A1_4_0" index="0" speed="8.00" length="14.19" shape="7.20,1001.60 3.35,1001.05 0.60,999.40 -1.05,996.65 -1.60,992.80"/>
    </edge>
    <edge id=":A1_5" function="internal">
        <lane id=":A1_5_0" index="0" speed="3.65" length="4.67" shape="7.20,1001.60 6.00,1000.80 5.60,1000.00 6.00,999.20 7.20,998.40"/>
    </edge>
    <edge id=":A1_6" function="internal">
        <lane id=":A1_6_0" index="0" speed="6.51" length="9.03" shape="1.60,992.80 1.95,995.25 3.00,997.00 4.75,998.05 7.20,998.40"/>
    </edge>
    <edge id=":A1_7" function="internal">
        <lane id=":A1_7_0" index="0" speed="13.89" length="14.40" shape="1.60,992.80 1.60,1007.20"/>
    </edge>
    <edge id=":A1_8" function="internal">
        <lane id=":A1_8_0" index="0" speed="3.65" length="2.34" shape="1.60,992.80 0.80,994.00 0.00,994.40"/>
    </edge>
    <edge id=":A1_11" function="internal">
        <lane id=":A1_11_0" index="0" speed="3.65" length="2.34" shape="0.00,994.40 -0.80,994.00 -1.60,992.80"/>
    </edge>
    <edge id=":A2_0" function="internal">
        <lane id=":A2_0_0" index="0" speed="6.08" length="7.74" shape="3.20,2001.60 1.10,2001.30 -0.40,2000.40 -1.30,1998.90 -1.60,1996.80"/>
    </edge>
    <edge id=":A2_1" function="internal">
        <lane id=":A2_1_0" index="0" speed="3.90" length="2.58" shape="1.60,1996.80 1.70,1997.50 2.00,1998.00 2.50,1998.30 3.20,1998.40"/>
    </edge>
    <edge id=":B0_0" function="internal">
        <lane id=":B0_0_0" index="0" speed="6.51" length="9.03" shape="498.40,7.20 498.05,4.75 497.00,3.00 495.25,1.95 492.80,1.60"/>
    </edge>
    <edge id=":B0_1" function="internal">
        <lane id=":B0_1_0" index="0" speed="8.00" length="14.19" shape="498.40,7.20 498.95,3.35 500.60,0.60 503.35,-1.05 507.20,-1.60"/>
    </edge>
    <edge id=":B0_2" function="internal">
        <lane id=":B0_2_0" index="0" speed="3.65" length="4.67" shape="498.40,7.20 499.20,6.00 500.00,5.60 500.80,6.00 501.60,7.20"/>
    </edge>
    <edge id=":B0_3" function="internal">
        <lane id=":B0_3_0" index="0" speed="6.51" length="9.03" shape="507.20,1.60 504.75,1.95 503.00,3.00 501.95,4.75 501.60,7.20"/>
    </edge>
    <edge id=":B0_4" function="internal">
        <lane id=":B0_4_0" index="0" speed="13.89" length="14.40" shape="507.20,1.60 492.80,1.60"/>
    </edge>
    <edge id=":B0_5" function="internal">
        <lane id=":B0_5_0" index="0" speed="3.65" length="2.34" shape="507.20,1.60 506.00,0.80 505.60,0.00"/>
    </edge>
    <edge id=":B0_9" function="internal">
        <lane id=":B0_9_0" index="0" speed="3.65" length="2.34" shape="505.60,0.00 506.00,-0.80 507.20,-1.60"/>
    </edge>
    <edge id=":B0_6" function="internal">
        <lane id=":B0_6_0" index="0" speed="13.89" length="14.40" shape="492.80,-1.60 507.20,-1.60"/>
    </edge>
    <edge id=":B0_7" function="internal">
        <lane id=":B0_7_0" index="0" speed="8.00" length="5.93" shape="492.80,-1.60 496.65,-1.05 498.40,-0.00"/>
    </edge>
    <edge id=":B0_8" function="internal">
        <lane id=":B0_8_0" index="0" speed="3.65" length="2.34" shape="492.80,-1.60 494.00,-0.80 494.40,0.00"/>
    </edge>
    <edge id=":B0_10" function="internal">
        <lane id=":B0_10_0" index="0" speed="8.00" length="8.26" shape="498.40,-0.00 499.40,0.60 501.05,3.35 501.60,7.20"/>
    </edge>
    <edge id=":B0_11" function="internal">
        <lane id=":B0_11_0" index="0" speed="3.65" length="2.34" shape="494.40,0.00 494.00,0.80 492.80,1.60"/>
    </edge>
    <edge id=":B1_0" function="internal">
        <lane id=":B1_0_0" index="0" speed="6.51" length="9.03" shape="498.40,1007.20 498.05,1004.75 497.00,1003.00 495.25,1001.95 492.80,1001.60"/>
    </edge>
    <edge id=":B1_1" function="internal">
        <lane id=":B1_1_0" index="0" speed="13.89" length="14.40" shape="498.40,1007.20 498.40,992.80"/>
    </edge>
    <edge id=":B1_2" function="internal">
        <lane id=":B1_2_0" index="0" speed="8.00" length="5.93" shape="498.40,1007.20 498.95,1003.35 500.00,1001.60"/>
    </edge>
    <edge id=":B1_3" function="internal">
        <lane id=":B1_3_0" index="0" speed="3.65" length="2.34" shape="498.40,1007.20 499.20,1006.00 500.00,1005.60"/>
    </edge>
    <edge id=":B1_16" function="internal">
        <lane id=":B1_16_0" index="0" speed="8.00" length="8.26" shape="500.00,1001.60 500.60,1000.60 503.35,998.95 507.20,998.40"/>
    </edge>
    <edge id=":B1_17" function="internal">
        <lane id=":B1_17_0" index="0" speed="3.65" length="2.34" shape="500.00,1005.60 500.80,1006.00 501.60,1007.20"/>
    </edge>
    <edge id=":B1_4" function="internal">
        <lane id=":B1_4_0" index="0" speed="6.51" length="9.03" shape="507.20,1001.60 504.75,1001.95 503.00,1003.00 501.95,1004.75 501.60,1007.20"/>
    </edge>
    <edge id=":B1_5" function="internal">
        <lane id=":B1_5_0" index="0" speed="13.89" length="14.40" shape="507.20,1001.60 492.80,1001.60"/>
    </edge>
    <edge id=":B1_6" function="internal">
        <lane id=":B1_6_0" index="0" speed="8.00" length="14.19" shape="507.20,1001.60 503.35,1001.05 500.60,999.40 498.95,996.65 498.40,992.80"/>
    </edge>
    <edge id=":B1_7" function="internal">
        <lane id=":B1_7_0" index="0" speed="3.65" length="4.67" shape="507.20,1001.60 506.00,1000.80 505.60,1000.00 506.00,999.20 507.20,998.40"/>
    </edge>
    <edge id=":B1_8" function="internal">
        <lane id=":B1_8_0" index="0" speed="6.51" length="9.03" shape="501.60,992.80 501.95,995.25 503.00,997.00 504.75,998.05 507.20,998.40"/>
    </edge>
    <edge id=":B1_9" function="internal">
        <lane id=":B1_9_0" index="0" speed="13.89" length="14.40" shape="501.60,992.80 501.60,1007.20"/>
    </edge>
    <edge id=":B1_10" function="internal">
        <lane id=":B1_10_0" index="0" speed="8.00" length="5.93" shape="501.60,992.80 501.05,996.65 500.00,998.40"/>
    </edge>
    <edge id=":B1_11" function="internal">
        <lane id=":B1_11_0" index="0" speed="3.65" length="2.34" shape="501.60,992.80 500.80,994.00 500.00,994.40"/>
    </edge>
    <edge id=":B1_18" function="internal">
        <lane id=":B1_18_0" index="0" speed="8.00" length="8.26" shape="500.00,998.40 499.40,999.40 496.65,1001.05 492.80,1001.60"/>
    </edge>
    <edge id=":B1_19" function="internal">
        <lane id=":B1_19_0" index="0" speed="3.65" length="2.34" shape="500.00,994.40 499.20,994.00 498.40,992.80"/>
    </edge>
    <edge id=":B1_12" function="internal">
        <lane id=":B1_12_0" index="0" speed="6.51" length="9.03" shape="492.80,998.40 495.25,998.05 497.00,997.00 498.05,995.25 498.40,992.80"/>
    </edge>
    <edge id=":B1_13" function="internal">
        <lane id=":B1_13_0" index="0" speed="13.89" length="14.40" shape="492.80,998.40 507.20,998.40"/>
    </edge>
    <edge id=":B1_14" function="internal">
        <lane id=":B1_14_0" index="0" speed="8.00" length="14.19" shape="492.80,998.40 496.65,998.95 499.40,1000.60 501.05,1003.35 501.60,1007.20"/>
    </edge>
    <edge id=":B1_15" function="internal">
        <lane id=":B1_15_0" index="0" speed="3.65" length="4.67" shape="492.80,998.40 494.00,999.20 494.40,1000.00 494.00,1000.80 492.80,1001.60"/>
    </edge>
    <edge id=":B2_0" function="internal">
        <lane id=":B2_0_0" index="0" speed="13.89" length="14.40" shape="507.20,2001.60 492.80,2001.60"/>
    </edge>
    <edge id=":B2_1" function="internal">
        <lane id=":B2_1_0" index="0" speed="8.00" length="5.93" shape="507.20,2001.60 503.35,2001.05 501.60,2000.00"/>
    </edge>
    <edge id=":B2_2" function="internal">
        <lane id=":B2_2_0" index="0" speed="3.65" length="2.34" shape="507.20,2001.60 506.00,2000.80 505.60,2000.00"/>
    </edge>
    <edge id=":B2_9" function="internal">
        <lane id=":B2_9_0" index="0" speed="8.00" length="8.26" shape="501.60,2000.00 500.60,1999.40 498.95,1996.65 498.40,1992.80"/>
    </edge>
    <edge id=":B2_10" function="internal">
        <lane id=":B2_10_0" index="0" speed="3.65" length="2.34" shape="505.60,2000.00 506.00,1999.20 507.20,1998.40"/>
    </edge>
    <edge id=":B2_3" function="internal">
        <lane id=":B2_3_0" index="0" speed="6.51" length="9.03" shape="501.60,1992.80 501.95,1995.25 503.00,1997.00 504.75,1998.05 507.20,1998.40"/>
    </edge>
    <edge id=":B2_4" function="internal">
        <lane id=":B2_4_0" index="0" speed="8.00" length="14.19" shape="501.60,1992.80 501.05,1996.65 499.40,1999.40 496.65,2001.05 492.80,2001.60"/>
    </edge>
    <edge id=":B2_5" function="internal">
        <lane id=":B2_5_0" index="0" speed="3.65" length="4.67" shape="501.60,1992.80 500.80,1994.00 500.00,1994.40 499.20,1994.00 498.40,1992.80"/>
    </edge>
    <edge id=":B2_6" function="internal">
        <lane id=":B2_6_0" index="0" speed="6.51" length="9.03" shape="492.80,1998.40 495.25,1998.05 497.00,1997.00 498.05,1995.25 498.40,1992.80"/>
    </edge>
    <edge id=":B2_7" function="internal">
        <lane id=":B2_7_0" index="0" speed="13.89" length="14.40" shape="492.80,1998.40 507.20,1998.40"/>
    </edge>
    <edge id=":B2_8" function="internal">
        <lane id=":B2_8_0" index="0" speed="3.65" length="2.34" shape="492.80,1998.40 494.00,1999.20 494.40,2000.00"/>
    </edge>
    <edge id=":B2_11" function="internal">
        <lane id=":B2_11_0" index="0" speed="3.65" length="2.34" shape="494.40,2000.00 494.00,2000.80 492.80,2001.60"/>
    </edge>
    <edge id=":C0_0" function="internal">
        <lane id=":C0_0_0" index="0" speed="6.51" length="9.03" shape="998.40,7.20 998.05,4.75 997.00,3.00 995.25,1.95 992.80,1.60"/>
    </edge>
    <edge id=":C0_1" function="internal">
        <lane id=":C0_1_0" index="0" speed="8.00" length="14.19" shape="998.40,7.20 998.95,3.35 1000.60,0.60 1003.35,-1.05 1007.20,-1.60"/>
    </edge>
    <edge id=":C0_2" function="internal">
        <lane id=":C0_2_0" index="0" speed="3.65" length="4.67" shape="998.40,7.20 999.20,6.00 1000.00,5.60 1000.80,6.00 1001.60,7.20"/>
    </edge>
    <edge id=":C0_3" function="internal">
        <lane id=":C0_3_0" index="0" speed="6.51" length="9.03" shape="1007.20,1.60 1004.75,1.95 1003.00,3.00 1001.95,4.75 1001.60,7.20"/>
    </edge>
    <edge id=":C0_4" function="internal">
        <lane id=":C0_4_0" index="0" speed="13.89" length="14.40" shape="1007.20,1.60 992.80,1.60"/>
    </edge>
    <edge id=":C0_5" function="internal">
        <lane id=":C0_5_0" index="0" speed="3.65" length="2.34" shape="1007.20,1.60 1006.00,0.80 1005.60,0.00"/>
    </edge>
    <edge id=":C0_9" function="internal">
        <lane id=":C0_9_0" index="0" speed="3.65" length="2.34" shape="1005.60,0.00 1006.00,-0.80 1007.20,-1.60"/>
    </edge>
    <edge id=":C0_6" function="internal">
        <lane id=":C0_6_0" index="0" speed="13.89" length="14.40" shape="992.80,-1.60 1007.20,-1.60"/>
    </edge>
    <edge id=":C0_7" function="internal">
        <lane id=":C0_7_0" index="0" speed="8.00" length="5.93" shape="992.80,-1.60 996.65,-1.05 998.40,-0.00"/>
    </edge>
    <edge id=":C0_8" function="internal">
        <lane id=":C0_8_0" index="0" speed="3.65" length="2.34" shape="992.80,-1.60 994.00,-0.80 994.40,0.00"/>
    </edge>
    <edge id=":C0_10" function="internal">
        <lane id=":C0_10_0" index="0" speed="8.00" length="8.26" shape="998.40,-0.00 999.40,0.60 1001.05,3.35 1001.60,7.20"/>
    </edge>
    <edge id=":C0_11" function="internal">
        <lane id=":C0_11_0" index="0" speed="3.65" length="2.34" shape="994.40,0.00 994.00,0.80 992.80,1.60"/>
    </edge>
    <edge id=":C1_0" function="internal">
        <lane id=":C1_0_0" index="0" speed="6.51" length="9.03" shape="998.40,1007.20 998.05,1004.75 997.00,1003.00 995.25,1001.95 992.80,1001.60"/>
    </edge>
    <edge id=":C1_1" function="internal">
        <lane id=":C1_1_0" index="0" speed="13.89" length="14.40" shape="998.40,1007.20 998.40,992.80"/>
    </edge>
    <edge id=":C1_2" function="internal">
        <lane id=":C1_2_0" index="0" speed="8.00" length="5.93" shape="998.40,1007.20 998.95,1003.35 1000.00,1001.60"/>
    </edge>
    <edge id=":C1_3" function="internal">
        <lane id=":C1_3_0" index="0" speed="3.65" length="2.34" shape="998.40,1007.20 999.20,1006.00 1000.00,1005.60"/>
    </edge>
    <edge id=":C1_16" function="internal">
        <lane id=":C1_16_0" index="0" speed="8.00" length="8.26" shape="1000.00,1001.60 1000.60,1000.60 1003.35,998.95 1007.20,998.40"/>
    </edge>
    <edge id=":C1_17" function="internal">
        <lane id=":C1_17_0" index="0" speed="3.65" length="2.34" shape="1000.00,1005.60 1000.80,1006.00 1001.60,1007.20"/>
    </edge>
    <edge id=":C1_4" function="internal">
        <lane id=":C1_4_0" index="0" speed="6.51" length="9.03" shape="1007.20,1001.60 1004.75,1001.95 1003.00,1003.00 1001.95,1004.75 1001.60,1007.20"/>
    </edge>
    <edge id=":C1_5" function="internal">
        <lane id=":C1_5_0" index="0" speed="13.89" length="14.40" shape="1007.20,1001.60 992.80,1001.60"/>
    </edge>
    <edge id=":C1_6" function="internal">
        <lane id=":C1_6_0" index="0" speed="8.00" length="14.19" shape="1007.20,1001.60 1003.35,1001.05 1000.60,999.40 998.95,996.65 998.40,992.80"/>
    </edge>
    <edge id=":C1_7" function="internal">
        <lane id=":C1_7_0" index="0" speed="3.65" length="4.67" shape="1007.20,1001.60 1006.00,1000.80 1005.60,1000.00 1006.00,999.20 1007.20,998.40"/>
    </edge>
    <edge id=":C1_8" function="internal">
        <lane id=":C1_8_0" index="0" speed="6.51" length="9.03" shape="1001.60,992.80 1001.95,995.25 1003.00,997.00 1004.75,998.05 1007.20,998.40"/>
    </edge>
    <edge id=":C1_9" function="internal">
        <lane id=":C1_9_0" index="0" speed="13.89" length="14.40" shape="1001.60,992.80 1001.60,1007.20"/>
    </edge>
    <edge id=":C1_10" function="internal">
        <lane id=":C1_10_0" index="0" speed="8.00" length="5.93" shape="1001.60,992.80 1001.05,996.65 1000.00,998.40"/>
    </edge>
    <edge id=":C1_11" function="internal">
        <lane id=":C1_11_0" index="0" speed="3.65" length="2.34" shape="1001.60,992.80 1000.80,994.00 1000.00,994.40"/>
    </edge>
    <edge id=":C1_18" function="internal">
        <lane id=":C1_18_0" index="0" speed="8.00" length="8.26" shape="1000.00,998.40 999.40,999.40 996.65,1001.05 992.80,1001.60"/>
    </edge>
    <edge id=":C1_19" function="internal">
        <lane id=":C1_19_0" index="0" speed="3.65" length="2.34" shape="1000.00,994.40 999.20,994.00 998.40,992.80"/>
    </edge>
    <edge id=":C1_12" function="internal">
        <lane id=":C1_12_0" index="0" speed="6.51" length="9.03" shape="992.80,998.40 995.25,998.05 997.00,997.00 998.05,995.25 998.40,992.80"/>
    </edge>
    <edge id=":C1_13" function="internal">
        <lane id=":C1_13_0" index="0" speed="13.89" length="14.40" shape="992.80,998.40 1007.20,998.40"/>
    </edge>
    <edge id=":C1_14" function="internal">
        <lane id=":C1_14_0" index="0" speed="8.00" length="14.19" shape="992.80,998.40 996.65,998.95 999.40,1000.60 1001.05,1003.35 1001.60,1007.20"/>
    </edge>
    <edge id=":C1_15" function="internal">
        <lane id=":C1_15_0" index="0" speed="3.65" length="4.67" shape="992.80,998.40 994.00,999.20 994.40,1000.00 994.00,1000.80 992.80,1001.60"/>
    </edge>
    <edge id=":C2_0" function="internal">
        <lane id=":C2_0_0" index="0" speed="13.89" length="14.40" shape="1007.20,2001.60 992.80,2001.60"/>
    </edge>
    <edge id=":C2_1" function="internal">
        <lane id=":C2_1_0" index="0" speed="8.00" length="5.93" shape="1007.20,2001.60 1003.35,2001.05 1001.60,2000.00"/>
    </edge>
    <edge id=":C2_2" function="internal">
        <lane id=":C2_2_0" index="0" speed="3.65" length="2.34" shape="1007.20,2001.60 1006.00,2000.80 1005.60,2000.00"/>
    </edge>
    <edge id=":C2_9" function="internal">
        <lane id=":C2_9_0" index="0" speed="8.00" length="8.26" shape="1001.60,2000.00 1000.60,1999.40 998.95,1996.65 998.40,1992.80"/>
    </edge>
    <edge id=":C2_10" function="internal">
        <lane id=":C2_10_0" index="0" speed="3.65" length="2.34" shape="1005.60,2000.00 1006.00,1999.20 1007.20,1998.40"/>
    </edge>
    <edge id=":C2_3" function="internal">
        <lane id=":C2_3_0" index="0" speed="6.51" length="9.03" shape="1001.60,1992.80 1001.95,1995.25 1003.00,1997.00 1004.75,1998.05 1007.20,1998.40"/>
    </edge>
    <edge id=":C2_4" function="internal">
        <lane id=":C2_4_0" index="0" speed="8.00" length="14.19" shape="1001.60,1992.80 1001.05,1996.65 999.40,1999.40 996.65,2001.05 992.80,2001.60"/>
    </edge>
    <edge id=":C2_5" function="internal">
        <lane id=":C2_5_0" index="0" speed="3.65" length="4.67" shape="1001.60,1992.80 1000.80,1994.00 1000.00,1994.40 999.20,1994.00 998.40,1992.80"/>
    </edge>
    <edge id=":C2_6" function="internal">
        <lane id=":C2_6_0" index="0" speed="6.51" length="9.03" shape="992.80,1998.40 995.25,1998.05 997.00,1997.00 998.05,1995.25 998.40,1992.80"/>
    </edge>
    <edge id=":C2_7" function="internal">
        <lane id=":C2_7_0" index="0" speed="13.89" length="14.40" shape="992.80,1998.40 1007.20,1998.40"/>
    </edge>
    <edge id=":C2_8" function="internal">
        <lane id=":C2_8_0" index="0" speed="3.65" length="2.34" shape="992.80,1998.40 994.00,1999.20 994.40,2000.00"/>
    </edge>
    <edge id=":C2_11" function="internal">
        <lane id=":C2_11_0" index="0" speed="3.65" length="2.34" shape="994.40,2000.00 994.00,2000.80 992.80,2001.60"/>
    </edge>
    <edge id=":D0_0" function="internal">
        <lane id=":D0_0_0" index="0" speed="6.51" length="9.03" shape="1498.40,7.20 1498.05,4.75 1497.00,3.00 1495.25,1.95 1492.80,1.60"/>
    </edge>
    <edge id=":D0_1" function="internal">
        <lane id=":D0_1_0" index="0" speed="8.00" length="14.19" shape="1498.40,7.20 1498.95,3.35 1500.60,0.60 1503.35,-1.05 1507.20,-1.60"/>
    </edge>
    <edge id=":D0_2" function="internal">
        <lane id=":D0_2_0" index="0" speed="3.65" length="4.67" shape="1498.40,7.20 1499.20,6.00 1500.00,5.60 1500.80,6.00 1501.60,7.20"/>
    </edge>
    <edge id=":D0_3" function="internal">
        <lane id=":D0_3_0" index="0" speed="6.51" length="9.03" shape="1507.20,1.60 1504.75,1.95 1503.00,3.00 1501.95,4.75 1501.60,7.20"/>
    </edge>
    <edge id=":D0_4" function="internal">
        <lane id=":D0_4_0" index="0" speed="13.89" length="14.40" shape="1507.20,1.60 1492.80,1.60"/>
    </edge>
    <edge id=":D0_5" function="internal">
        <lane id=":D0_5_0" index="0" speed="3.65" length="2.34" shape="1507.20,1.60 1506.00,0.80 1505.60,0.00"/>
    </edge>
    <edge id=":D0_9" function="internal">
        <lane id=":D0_9_0" index="0" speed="3.65" length="2.34" shape="1505.60,0.00 1506.00,-0.80 1507.20,-1.60"/>
    </edge>
    <edge id=":D0_6" function="internal">
        <lane id=":D0_6_0" index="0" speed="13.89" length="14.40" shape="1492.80,-1.60 1507.20,-1.60"/>
    </edge>
    <edge id=":D0_7" function="internal">
        <lane id=":D0_7_0" index="0" speed="8.00" length="5.93" shape="1492.80,-1.60 1496.65,-1.05 1498.40,0.00"/>
    </edge>
    <edge id=":D0_8" function="internal">
        <lane id=":D0_8_0" index="0" speed="3.65" length="2.34" shape="1492.80,-1.60 1494.00,-0.80 1494.40,0.00"/>
    </edge>
    <edge id=":D0_10" function="internal">
        <lane id=":D0_10_0" index="0" speed="8.00" length="8.26" shape="1498.40,0.00 1499.40,0.60 1501.05,3.35 1501.60,7.20"/>
    </edge>
    <edge id=":D0_11" function="internal">
        <lane id=":D0_11_0" index="0" speed="3.65" length="2.34" shape="1494.40,0.00 1494.00,0.80 1492.80,1.60"/>
    </edge>
    <edge id=":D1_0" function="internal">
        <lane id=":D1_0_0" index="0" speed="6.51" length="9.03" shape="1498.40,1007.20 1498.05,1004.75 1497.00,1003.00 1495.25,1001.95 1492.80,1001.60"/>
    </edge>
    <edge id=":D1_1" function="internal">
        <lane id=":D1_1_0" index="0" speed="13.89" length="14.40" shape="1498.40,1007.20 1498.40,992.80"/>
    </edge>
    <edge id=":D1_2" function="internal">
        <lane id=":D1_2_0" index="0" speed="8.00" length="5.93" shape="1498.40,1007.20 1498.95,1003.35 1500.00,1001.60"/>
    </edge>
    <edge id=":D1_3" function="internal">
        <lane id=":D1_3_0" index="0" speed="3.65" length="2.34" shape="1498.40,1007.20 1499.20,1006.00 1500.00,1005.60"/>
    </edge>
    <edge id=":D1_16" function="internal">
        <lane id=":D1_16_0" index="0" speed="8.00" length="8.26" shape="1500.00,1001.60 1500.60,1000.60 1503.35,998.95 1507.20,998.40"/>
    </edge>
    <edge id=":D1_17" function="internal">
        <lane id=":D1_17_0" index="0" speed="3.65" length="2.34" shape="1500.00,1005.60 1500.80,1006.00 1501.60,1007.20"/>
    </edge>
    <edge id=":D1_4" function="internal">
        <lane id=":D1_4_0" index="0" speed="6.51" length="9.03" shape="1507.20,1001.60 1504.75,1001.95 1503.00,1003.00 1501.95,1004.75 1501.60,1007.20"/>
    </edge>
    <edge id=":D1_5" function="internal">
        <lane id=":D1_5_0" index="0" speed="13.89" length="14.40" shape="1507.20,1001.60 1492.80,1001.60"/>
    </edge>
    <edge id=":D1_6" function="internal">
        <lane id=":D1_6_0" index="0" speed="8.00" length="14.19" shape="1507.20,1001.60 1503.35,1001.05 1500.60,999.40 1498.95,996.65 1498.40,992.80"/>
    </edge>
    <edge id=":D1_7" function="internal">
        <lane id=":D1_7_0" index="0" speed="3.65" length="4.67" shape="1507.20,1001.60 1506.00,1000.80 1505.60,1000.00 1506.00,999.20 1507.20,998.40"/>
    </edge>
    <edge id=":D1_8" function="internal">
        <lane id=":D1_8_0" index="0" speed="6.51" length="9.03" shape="1501.60,992.80 1501.95,995.25 1503.00,997.00 1504.75,998.05 1507.20,998.40"/>
    </edge>
    <edge id=":D1_9" function="internal">
        <lane id=":D1_9_0" index="0" speed="13.89" length="14.40" shape="1501.60,992.80 1501.60,1007.20"/>
    </edge>
    <edge id=":D1_10" function="internal">
        <lane id=":D1_10_0" index="0" speed="8.00" length="5.93" shape="1501.60,992.80 1501.05,996.65 1500.00,998.40"/>
    </edge>
    <edge id=":D1_11" function="internal">
        <lane id=":D1_11_0" index="0" speed="3.65" length="2.34" shape="1501.60,992.80 1500.80,994.00 1500.00,994.40"/>
    </edge>
    <edge id=":D1_18" function="internal">
        <lane id=":D1_18_0" index="0" speed="8.00" length="8.26" shape="1500.00,998.40 1499.40,999.40 1496.65,1001.05 1492.80,1001.60"/>
    </edge>
    <edge id=":D1_19" function="internal">
        <lane id=":D1_19_0" index="0" speed="3.65" length="2.34" shape="1500.00,994.40 1499.20,994.00 1498.40,992.80"/>
    </edge>
    <edge id=":D1_12" function="internal">
        <lane id=":D1_12_0" index="0" speed="6.51" length="9.03" shape="1492.80,998.40 1495.25,998.05 1497.00,997.00 1498.05,995.25 1498.40,992.80"/>
    </edge>
    <edge id=":D1_13" function="internal">
        <lane id=":D1_13_0" index="0" speed="13.89" length="14.40" shape="1492.80,998.40 1507.20,998.40"/>
    </edge>
    <edge id=":D1_14" function="internal">
        <lane id=":D1_14_0" index="0" speed="8.00" length="14.19" shape="1492.80,998.40 1496.65,998.95 1499.40,1000.60 1501.05,1003.35 1501.60,1007.20"/>
    </edge>
    <edge id=":D1_15" function="internal">
        <lane id=":D1_15_0" index="0" speed="3.65" length="4.67" shape="1492.80,998.40 1494.00,999.20 1494.40,1000.00 1494.00,1000.80 1492.80,1001.60"/>
    </edge>
    <edge id=":D2_0" function="internal">
        <lane id=":D2_0_0" index="0" speed="13.89" length="14.40" shape="1507.20,2001.60 1492.80,2001.60"/>
    </edge>
    <edge id=":D2_1" function="internal">
        <lane id=":D2_1_0" index="0" speed="8.00" length="5.93" shape="1507.20,2001.60 1503.35,2001.05 1501.60,2000.00"/>
    </edge>
    <edge id=":D2_2" function="internal">
        <lane id=":D2_2_0" index="0" speed="3.65" length="2.34" shape="1507.20,2001.60 1506.00,2000.80 1505.60,2000.00"/>
    </edge>
    <edge id=":D2_9" function="internal">
        <lane id=":D2_9_0" index="0" speed="8.00" length="8.26" shape="1501.60,2000.00 1500.60,1999.40 1498.95,1996.65 1498.40,1992.80"/>
    </edge>
    <edge id=":D2_10" function="internal">
        <lane id=":D2_10_0" index="0" speed="3.65" length="2.34" shape="1505.60,2000.00 1506.00,1999.20 1507.20,1998.40"/>
    </edge>
    <edge id=":D2_3" function="internal">
        <lane id=":D2_3_0" index="0" speed="6.51" length="9.03" shape="1501.60,1992.80 1501.95,1995.25 1503.00,1997.00 1504.75,1998.05 1507.20,1998.40"/>
    </edge>
    <edge id=":D2_4" function="internal">
        <lane id=":D2_4_0" index="0" speed="8.00" length="14.19" shape="1501.60,1992.80 1501.05,1996.65 1499.40,1999.40 1496.65,2001.05 1492.80,2001.60"/>
    </edge>
    <edge id=":D2_5" function="internal">
        <lane id=":D2_5_0" index="0" speed="3.65" length="4.67" shape="1501.60,1992.80 1500.80,1994.00 1500.00,1994.40 1499.20,1994.00 1498.40,1992.80"/>
    </edge>
    <edge id=":D2_6" function="internal">
        <lane id=":D2_6_0" index="0" speed="6.51" length="9.03" shape="1492.80,1998.40 1495.25,1998.05 1497.00,1997.00 1498.05,1995.25 1498.40,1992.80"/>
    </edge>
    <edge id=":D2_7" function="internal">
        <lane id=":D2_7_0" index="0" speed="13.89" length="14.40" shape="1492.80,1998.40 1507.20,1998.40"/>
    </edge>
    <edge id=":D2_8" function="internal">
        <lane id=":D2_8_0" index="0" speed="3.65" length="2.34" shape="1492.80,1998.40 1494.00,1999.20 1494.40,2000.00"/>
    </edge>
    <edge id=":D2_11" function="internal">
        <lane id=":D2_11_0" index="0" speed="3.65" length="2.34" shape="1494.40,2000.00 1494.00,2000.80 1492.80,2001.60"/>
    </edge>
    <edge id=":E0_0" function="internal">
        <lane id=":E0_0_0" index="0" speed="6.51" length="9.03" shape="1998.40,7.20 1998.05,4.75 1997.00,3.00 1995.25,1.95 1992.80,1.60"/>
    </edge>
    <edge id=":E0_1" function="internal">
        <lane id=":E0_1_0" index="0" speed="8.00" length="14.19" shape="1998.40,7.20 1998.95,3.35 2000.60,0.60 2003.35,-1.05 2007.20,-1.60"/>
    </edge>
    <edge id=":E0_2" function="internal">
        <lane id=":E0_2_0" index="0" speed="3.65" length="4.67" shape="1998.40,7.20 1999.20,6.00 2000.00,5.60 2000.80,6.00 2001.60,7.20"/>
    </edge>
    <edge id=":E0_3" function="internal">
        <lane id=":E0_3_0" index="0" speed="6.51" length="9.03" shape="2007.20,1.60 2004.75,1.95 2003.00,3.00 2001.95,4.75 2001.60,7.20"/>
    </edge>
    <edge id=":E0_4" function="internal">
        <lane id=":E0_4_0" index="0" speed="13.89" length="14.40" shape="2007.20,1.60 1992.80,1.60"/>
    </edge>
    <edge id=":E0_5" function="internal">
        <lane id=":E0_5_0" index="0" speed="3.65" length="2.34" shape="2007.20,1.60 2006.00,0.80 2005.60,0.00"/>
    </edge>
    <edge id=":E0_9" function="internal">
        <lane id=":E0_9_0" index="0" speed="3.65" length="2.34" shape="2005.60,0.00 2006.00,-0.80 2007.20,-1.60"/>
    </edge>
    <edge id=":E0_6" function="internal">
        <lane id=":E0_6_0" index="0" speed="13.89" length="14.40" shape="1992.80,-1.60 2007.20,-1.60"/>
    </edge>
    <edge id=":E0_7" function="internal">
        <lane id=":E0_7_0" index="0" speed="8.00" length="5.93" shape="1992.80,-1.60 1996.65,-1.05 1998.40,0.00"/>
    </edge>
    <edge id=":E0_8" function="internal">
        <lane id=":E0_8_0" index="0" speed="3.65" length="2.34" shape="1992.80,-1.60 1994.00,-0.80 1994.40,0.00"/>
    </edge>
    <edge id=":E0_10" function="internal">
        <lane id=":E0_10_0" index="0" speed="8.00" length="8.26" shape="1998.40,0.00 1999.40,0.60 2001.05,3.35 2001.60,7.20"/>
    </edge>
    <edge id=":E0_11" function="internal">
        <lane id=":E0_11_0" index="0" speed="3.65" length="2.34" shape="1994.40,0.00 1994.00,0.80 1992.80,1.60"/>
    </edge>
    <edge id=":E1_0" function="internal">